data_tf-eb1
_audit_creation_date               2024-05-10
_audit_creation_method
;
Olex2 1.5
(compiled 2024.02.16 svn.r378c4104 for OlexSys, GUI svn.r6928)
;
_shelx_SHELXL_version_number       '2019/2'
_audit_contact_author_address      ?
_audit_contact_author_email        ?
_audit_contact_author_name         ''
_audit_contact_author_phone        ?
_publ_contact_author_id_orcid      ?
_publ_section_references
;
Dolomanov, O.V., Bourhis, L.J., Gildea, R.J, Howard, J.A.K. & Puschmann, H.
 (2009), J. Appl. Cryst. 42, 339-341.

Sheldrick, G.M. (2015). Acta Cryst. A71, 3-8.

Sheldrick, G.M. (2015). Acta Cryst. C71, 3-8.
;
_chemical_name_common              ?
_chemical_name_systematic          ?
_chemical_formula_moiety           'C54 H48 Ag2 N8 O4, 2(B F4), 6(C2 H3 N)'
_chemical_formula_sum              'C66 H66 Ag2 B2 F8 N14 O4'
_chemical_formula_weight           1508.68
_chemical_melting_point            ?
_chemical_oxdiff_formula           C66H66Ag2B2F8N14O4
_chemical_oxdiff_usercomment       'transition metal cage'
loop_
  _atom_type_symbol
  _atom_type_description
  _atom_type_scat_dispersion_real
  _atom_type_scat_dispersion_imag
  _atom_type_scat_source
 'C' 'C' 0.0181 0.0091 'International Tables Vol C Tables 4.2.6.8 and 6.1.1.4'
 'H' 'H' 0.0000 0.0000 'International Tables Vol C Tables 4.2.6.8 and 6.1.1.4'
 'B' 'B' 0.0090 0.0039 'International Tables Vol C Tables 4.2.6.8 and 6.1.1.4'
 'N' 'N' 0.0311 0.0180 'International Tables Vol C Tables 4.2.6.8 and 6.1.1.4'
 'O' 'O' 0.0492 0.0322 'International Tables Vol C Tables 4.2.6.8 and 6.1.1.4'
 'F' 'F' 0.0727 0.0534 'International Tables Vol C Tables 4.2.6.8 and 6.1.1.4'
 'Ag' 'Ag' 0.1306 4.2820 'International Tables Vol C Tables 4.2.6.8 and 6.1.1.4'

_shelx_space_group_comment
;
The symmetry employed for this shelxl refinement is uniquely defined
by the following loop, which should always be used as a source of
symmetry information in preference to the above space-group names.
They are only intended as comments.
;
_space_group_crystal_system        'triclinic'
_space_group_IT_number             2
_space_group_name_H-M_alt          'P -1'
_space_group_name_Hall             '-P 1'
loop_
  _space_group_symop_operation_xyz
 'x, y, z'
 '-x, -y, -z'

_cell_length_a                     7.7826(2)
_cell_length_b                     15.0336(4)
_cell_length_c                     15.0412(3)
_cell_angle_alpha                  81.341(2)
_cell_angle_beta                   76.289(2)
_cell_angle_gamma                  82.447(2)
_cell_volume                       1681.77(7)
_cell_formula_units_Z              1
_cell_measurement_reflns_used      22973
_cell_measurement_temperature      100.00(10)
_cell_measurement_theta_max        77.6480
_cell_measurement_theta_min        2.9230
_shelx_estimated_absorpt_T_max     0.814
_shelx_estimated_absorpt_T_min     0.235
_exptl_absorpt_coefficient_mu      5.356
_exptl_absorpt_correction_T_max    1.000
_exptl_absorpt_correction_T_min    0.270
_exptl_absorpt_correction_type     gaussian
_exptl_absorpt_process_details
;
CrysAlisPro 1.171.43.121a (Rigaku Oxford Diffraction, 2024)
Numerical absorption correction based on gaussian integration over
a multifaceted crystal model
Empirical absorption correction using spherical harmonics,
implemented in SCALE3 ABSPACK scaling algorithm.
;
_exptl_absorpt_special_details     ?
_exptl_crystal_colour              'light yellow'
_exptl_crystal_colour_modifier     light
_exptl_crystal_colour_primary      yellow
_exptl_crystal_density_diffrn      1.490
_exptl_crystal_density_meas        ?
_exptl_crystal_density_method      ?
_exptl_crystal_description         needle
_exptl_crystal_F_000               768
loop_
  _exptl_crystal_face_index_h
  _exptl_crystal_face_index_k
  _exptl_crystal_face_index_l
  _exptl_crystal_face_perp_dist
 0 -1 2 0.0263
 2 1 -1 0.1495
 -2 -1 2 0.1376
 0 1 2 0.0151
 0 -2 -1 0.0342
 0 2 1 0.0105
 0 1 0 0.0119
 0 -1 0 0.0371
 2 -2 -1 0.1398
 0 1 -1 0.0192
 0 0 -1 0.0205

_exptl_crystal_size_max            0.38
_exptl_crystal_size_mid            0.05
_exptl_crystal_size_min            0.04
loop_
  _exptl_oxdiff_crystal_face_indexfrac_h
  _exptl_oxdiff_crystal_face_indexfrac_k
  _exptl_oxdiff_crystal_face_indexfrac_l
  _exptl_oxdiff_crystal_face_x
  _exptl_oxdiff_crystal_face_y
  _exptl_oxdiff_crystal_face_z
 -0.0000 -1.0000 2.0000 -0.1191 -0.1963 0.0937
 2.0000 0.9999 -1.0001 0.1952 0.2869 0.2881
 -2.0000 -0.9999 2.0001 -0.2799 -0.3412 -0.2540
 0.0000 1.0000 2.0000 -0.2197 -0.0211 0.0427
 -0.0000 -2.0000 -1.0000 0.1853 -0.1208 0.0169
 0.0000 2.0000 1.0000 -0.1853 0.1208 -0.0169
 0.0000 1.0000 -0.0000 -0.0503 0.0876 -0.0255
 -0.0000 -1.0000 0.0000 0.0503 -0.0876 0.0255
 2.0000 -2.0001 -1.0000 0.3461 0.0241 0.3645
 0.0000 1.0000 -1.0000 0.0344 0.1420 -0.0596
 0.0000 -0.0000 -1.0000 0.0847 0.0544 -0.0341

_exptl_transmission_factor_max     ?
_exptl_transmission_factor_min     ?
_diffrn_reflns_av_R_equivalents    0.0440
_diffrn_reflns_av_unetI/netI       0.0275
_diffrn_reflns_Laue_measured_fraction_full  0.997
_diffrn_reflns_Laue_measured_fraction_max  0.977
_diffrn_reflns_limit_h_max         9
_diffrn_reflns_limit_h_min         -8
_diffrn_reflns_limit_k_max         19
_diffrn_reflns_limit_k_min         -19
_diffrn_reflns_limit_l_max         19
_diffrn_reflns_limit_l_min         -18
_diffrn_reflns_number              31600
_diffrn_reflns_point_group_measured_fraction_full  0.997
_diffrn_reflns_point_group_measured_fraction_max  0.977
_diffrn_reflns_theta_full          67.684
_diffrn_reflns_theta_max           79.838
_diffrn_reflns_theta_min           2.988
_diffrn_ambient_environment        N~2~
_diffrn_ambient_temperature        100.00(10)
_diffrn_detector                   'Hybrid Pixel Array Detector'
_diffrn_detector_area_resol_mean   10.0000
_diffrn_detector_type              'HyPix-Arc 100'
_diffrn_measured_fraction_theta_full  0.997
_diffrn_measured_fraction_theta_max  0.977
_diffrn_measurement_details
;
List of Runs (angles in degrees, time in seconds):

  # Type    Start    End  Width  t~exp~   \w     \q     \k     \f   Frames
--------------------------------------------------------------------------
  1  \w    -13.00  45.00   0.50    0.50    --   48.17 -99.00 -18.00  116
  2  \w    -80.00 -13.00   0.50    0.50    --  -51.42  99.00  87.00  134
  3  \w   -148.00 -88.00   0.50    2.00    --  -87.52 -99.00 -18.00  120
  4  \w    -65.00 -40.00   0.50    2.00    --  -87.52  99.00  87.00   50
  5  \w     78.00 105.00   0.50    2.00    --  104.44 -99.00 -18.00   54
  6  \w    124.00 150.00   0.50    2.00    --  104.44  99.00  87.00   52
  7  \w    -22.00  29.00   0.50    0.50    --   48.17 -19.00 -90.00  102
  8  \w    -16.00  20.00   0.50    0.50    --  -51.42  19.00-180.00   72
  9  \w    -14.00  13.00   0.50    0.50    --  -51.42  19.00 -30.00   54
 10  \w   -114.00 -47.00   0.50    0.50    --  -51.42 -77.00 -90.00  134
 11  \w    -64.00 -33.00   0.50    2.00    --  -87.52  61.00   0.00   62
 12  \w    -47.00 -22.00   0.50    2.00    --  -87.52  45.00  60.00   50
 13  \w    -48.00 -16.00   0.50    2.00    --  -87.52  45.00 -90.00   64
 14  \w    -46.00 -17.00   0.50    2.00    --  -87.52  45.00 -30.00   58
 15  \w    -47.00 -22.00   0.50    2.00    --  -87.52  45.00-180.00   50
 16  \w    -45.00 -17.00   0.50    2.00    --  -87.52  45.00 120.00   56
 17  \w    -44.00 -16.00   0.50    2.00    --  -87.52  45.00-120.00   56
 18  \w   -144.00 -83.00   0.50    2.00    --  -87.52 -95.00-150.00  122
 19  \w    -47.00 -17.00   0.50    2.00    --  -87.52  45.00 -60.00   60
 20  \w   -122.00 -79.00   0.50    2.00    --  -96.00 140.00  -5.78   86
 21  \w    -63.00 -31.00   0.50    2.00    --  -96.00 140.00  -5.78   64
 22  \w   -128.00-102.00   0.50    2.00    --  -96.00 150.00-173.45   52
 23  \w   -125.00 -69.00   0.50    2.00    --  -96.00 145.00 167.77  112
 24  \w     95.00 125.00   0.50    2.00    --  104.44  45.00  90.00   60
 25  \w     86.00 112.00   0.50    2.00    --  104.44-125.00   0.00   52
 26  \w     42.00  67.00   0.50    2.00    --  104.44 -95.00  60.00   50
 27  \w     99.00 135.00   0.50    2.00    --  104.44  45.00-180.00   72
 28  \w     62.00 112.00   0.50    2.00    --  104.44-125.00-180.00  100
 29  \w     63.00 106.00   0.50    2.00    --  104.44-125.00-150.00   86
 30  \w     91.00 136.00   0.50    2.00    --  104.44 125.00  60.00   90
 31  \w     43.00  68.00   0.50    2.00    --  104.44 -61.00   0.00   50
 32  \w     43.00  69.00   0.50    2.00    --  104.44 -77.00 -90.00   52
 33  \w     54.00  90.00   0.50    2.00    --  104.44-125.00  90.00   72
 34  \w     40.00  83.00   0.50    2.00    --  104.44-125.00  30.00   86
 35  \w    107.00 132.00   0.50    2.00    --  104.44  77.00 -60.00   50
 36  \w     75.00 105.00   0.50    2.00    --  104.44 -95.00 -90.00   60
 37  \w    136.00 173.00   0.50    2.00    --  104.44  61.00-120.00   74
 38  \w     97.00 140.00   0.50    2.00    --  104.44  45.00-150.00   86
 39  \w     46.00  85.00   0.50    2.00    --  104.44 -77.00 150.00   78
 40  \w    103.00 149.00   0.50    2.00    --  104.44  61.00 -30.00   92
 41  \w     36.00  62.00   0.50    2.00    --  104.44 -61.00 120.00   52
 42  \w     94.00 120.00   0.50    2.00    --  104.44  61.00-120.00   52
 43  \w     39.00  67.00   0.50    2.00    --  104.44 -61.00  90.00   56
 44  \w     96.00 127.00   0.50    2.00    --  104.44  45.00-120.00   62
 45  \w     41.00  72.00   0.50    2.00    --  104.44 -61.00 150.00   62
 46  \w    138.00 163.00   0.50    2.00    --  104.44 125.00   0.00   50
 47  \w     36.00  61.00   0.50    2.00    --  104.44 -61.00 -90.00   50
 48  \w     81.00 111.00   0.50    2.00    --  104.44-125.00-120.00   60
 49  \w     45.00  98.00   0.50    2.00    --  107.75 -81.00  92.91  106
 50  \w     47.00  73.00   0.50    2.00    --  107.75 -81.00-143.33   52
 51  \w     48.00 102.00   0.50    2.00    --  107.75 -78.00 -42.45  108
 52  \w    148.00 173.00   0.50    2.00    --  107.75  13.00 -40.30   50
 53  \w     80.00 119.00   0.50    2.00    --  107.75  18.00-168.12   78
 54  \w     56.00 131.00   0.50    2.00    --  107.75  13.00 -40.30  150
 55  \w     46.00 103.00   0.50    2.00    --  107.75 -81.00-161.42  114
 56  \w    107.00 175.00   0.50    2.00    --  107.75  12.00 171.73  136
 57  \w     50.00  94.00   0.50    2.00    --  107.75 -79.00  61.75   88
 58  \w     46.00  86.00   0.50    2.00    --  107.75  12.00 171.73   80
 59  \w    135.00 160.00   0.50    2.00    --  107.75  18.00-168.12   50
 60  \w     59.00  84.00   0.50    2.00    --  107.75  14.00  67.99   50
 61  \w     72.00 140.00   0.50    2.00    --  107.75  18.00  76.09  136
 62  \w     46.00  74.00   0.50    2.00    --  107.75 -86.00 -48.65   56
 63  \w     46.00  76.00   0.50    2.00    --  107.75 -83.00  44.29   60
 64  \w     46.00  98.00   0.50    2.00    --  107.75 -79.00-107.96  104
 65  \w     64.00  90.00   0.50    2.00    --  107.75 -79.00 119.49   52
 66  \w     49.00  88.00   0.50    2.00    --  107.75 -88.00  11.26   78
 67  \w     53.00  78.00   0.50    2.00    --  107.75 -82.00 -80.14   50
 68  \w     55.00  80.00   0.50    2.00    --  107.75 -83.00  72.86   50
 69  \w     46.00  80.00   0.50    2.00    --  107.75 -77.00-136.44   68
 70  \w     72.00  98.00   0.50    2.00    --  107.75   6.00 -16.44   52
 71  \w     70.00 111.00   0.50    2.00    --  107.75  17.00-117.19   82
 72  \w     81.00 106.00   0.50    2.00    --  107.75 -79.00 -77.09   50
 73  \w     46.00  72.00   0.50    2.00    --  107.75 -79.00 -77.09   52
 74  \w    108.00 134.00   0.50    2.00    --  107.75 -88.00 147.81   52
 75  \w    105.00 130.00   0.50    2.00    --  107.75 -85.00  70.06   50
;
_diffrn_measurement_device         'four-circle diffractometer'
_diffrn_measurement_device_type    'XtaLAB Synergy R, DW system, HyPix-Arc 100'
_diffrn_measurement_method         '\w scans'
_diffrn_orient_matrix_type        
 'CrysAlisPro convention (1999,Acta A55,543-557)'
_diffrn_orient_matrix_UB_11        0.0804154000
_diffrn_orient_matrix_UB_12        -0.0502984000
_diffrn_orient_matrix_UB_13        -0.0846762000
_diffrn_orient_matrix_UB_21        0.0724494000
_diffrn_orient_matrix_UB_22        0.0875985000
_diffrn_orient_matrix_UB_23        -0.0543722000
_diffrn_orient_matrix_UB_31        0.1738314000
_diffrn_orient_matrix_UB_32        -0.0254759000
_diffrn_orient_matrix_UB_33        0.0340889000
_diffrn_radiation_monochromator    mirror
_diffrn_radiation_probe            x-ray
_diffrn_radiation_type             'Cu K\a'
_diffrn_radiation_wavelength       1.54184
_diffrn_source                     'Rotating-anode X-ray tube'
_diffrn_source_type                'Rigaku (Cu) X-ray Source'
_reflns_Friedel_coverage           0.000
_reflns_Friedel_fraction_full      .
_reflns_Friedel_fraction_max       .
_reflns_number_gt                  6877
_reflns_number_total               7158
_reflns_special_details
;
 Reflections were merged by SHELXL according to the crystal
 class for the calculation of statistics and refinement.
 
 _reflns_Friedel_fraction is defined as the number of unique
 Friedel pairs measured divided by the number that would be
 possible theoretically, ignoring centric projections and
 systematic absences.
;
_reflns_threshold_expression       'I > 2\s(I)'
_computing_cell_refinement         'CrysAlisPro 1.171.43.121a (Rigaku OD, 2024)'
_computing_data_collection        
 'CrysAlisPro system (CCD 44.46a 64-bit (release 16-04-2024))'
_computing_data_reduction          'CrysAlisPro 1.171.43.121a (Rigaku OD, 2024)'
_computing_molecular_graphics      'Olex2 1.5 (Dolomanov et al., 2009)'
_computing_publication_material    'Olex2 1.5 (Dolomanov et al., 2009)'
_computing_structure_refinement    'SHELXL 2019/2 (Sheldrick, 2015)'
_computing_structure_solution      'SHELXT 2018/2 (Sheldrick, 2018)'
_refine_diff_density_max           0.898
_refine_diff_density_min           -1.355
_refine_diff_density_rms           0.119
_refine_ls_extinction_coef         0.0028(3)
_refine_ls_extinction_expression  
 'Fc^*^=kFc[1+0.001xFc^2^\l^3^/sin(2\q)]^-1/4^'
_refine_ls_extinction_method       'SHELXL-2019/2 (Sheldrick 2019)'
_refine_ls_goodness_of_fit_ref     1.127
_refine_ls_hydrogen_treatment      constr
_refine_ls_matrix_type             full
_refine_ls_number_parameters       458
_refine_ls_number_reflns           7158
_refine_ls_number_restraints       21
_refine_ls_R_factor_all            0.0466
_refine_ls_R_factor_gt             0.0456
_refine_ls_restrained_S_all        1.129
_refine_ls_shift/su_max            0.000
_refine_ls_shift/su_mean           0.000
_refine_ls_structure_factor_coef   Fsqd
_refine_ls_weighting_details      
 'w=1/[\s^2^(Fo^2^)+(0.0855P)^2^+1.1783P] where P=(Fo^2^+2Fc^2^)/3'
_refine_ls_weighting_scheme        calc
_refine_ls_wR_factor_gt            0.1280
_refine_ls_wR_factor_ref           0.1291
_refine_special_details            ?
_olex2_refinement_description
;
1. Fixed Uiso
 At 1.2 times of:
  All C(H) groups, All C(H,H) groups
 At 1.5 times of:
  All C(H,H,H) groups, All C(H,H,H,H,H,H) groups
2. Restrained distances
 C43-C42 \\sim C43-C42A
 with sigma of 0.02
 C42-N41 \\sim C42A-N41A
 with sigma of 0.02
 C43-N41 \\sim C43-N41A
 with sigma of 0.04
3. Rigid body (RIGU) restrains
 C42, N41, C43, C42A, N41A
 with sigma for 1-2 distances of 0.004 and sigma for 1-3 distances of 0.004
4. Others
 Sof(N41A)=Sof(C42A)=Sof(H43D)=Sof(H43E)=Sof(H43F)=1-FVAR(1)
 Sof(N41)=Sof(C42)=Sof(H43A)=Sof(H43B)=Sof(H43C)=FVAR(1)
5.a Secondary CH2 refined with riding coordinates:
 C7(H7A,H7B)
5.b Aromatic/amide H refined with riding coordinates:
 C4(H4), C5(H5), C9(H9), C10(H10), C13(H13), C17(H17), C18(H18), C19(H19),
 C22(H22), C23(H23), C24(H24), C25(H25), C26(H26), C30(H30), C31(H31), C32(H32)
5.c Idealised Me refined as rotating group:
 C21(H21A,H21B,H21C), C34(H34A,H34B,H34C), C40(H40A,H40B,H40C), C43(H43A,H43B,
 H43C), C43(H43D,H43E,H43F), C37(H37A,H37B,H37C)
;
_atom_sites_solution_hydrogens     geom
_atom_sites_solution_primary       dual
_atom_sites_solution_secondary     ?
loop_
  _atom_site_label
  _atom_site_type_symbol
  _atom_site_fract_x
  _atom_site_fract_y
  _atom_site_fract_z
  _atom_site_U_iso_or_equiv
  _atom_site_adp_type
  _atom_site_occupancy
  _atom_site_site_symmetry_order
  _atom_site_calc_flag
  _atom_site_refinement_flags_posn
  _atom_site_refinement_flags_adp
  _atom_site_refinement_flags_occupancy
  _atom_site_disorder_assembly
  _atom_site_disorder_group
 Ag1 Ag 0.21452(3) 0.76722(2) 0.23715(2) 0.03159(11) Uani 1 1 d . . . . .
 N2 N 0.1771(3) 0.79259(16) 0.38398(16) 0.0274(4) Uani 1 1 d . . . . .
 C3 C 0.1198(3) 0.72661(18) 0.46049(18) 0.0269(5) Uani 1 1 d . . . . .
 C4 C 0.1821(4) 0.6366(2) 0.4524(2) 0.0307(5) Uani 1 1 d . . . . .
 H4 H 0.260621 0.620707 0.397145 0.037 Uiso 1 1 calc R U . . .
 C5 C 0.1299(4) 0.5700(2) 0.5247(2) 0.0327(6) Uani 1 1 d . . . . .
 H5 H 0.174853 0.508812 0.518810 0.039 Uiso 1 1 calc R U . . .
 C6 C 0.0126(3) 0.59140(19) 0.60603(19) 0.0284(5) Uani 1 1 d . . . . .
 C7 C -0.0407(4) 0.5178(2) 0.6852(2) 0.0321(6) Uani 1 1 d . . . . .
 H7A H -0.130015 0.544206 0.735356 0.038 Uiso 1 1 calc R U . . .
 H7B H -0.095478 0.471556 0.663653 0.038 Uiso 1 1 calc R U . . .
 C8 C 0.1199(4) 0.47355(19) 0.72167(18) 0.0291(5) Uani 1 1 d . . . . .
 C9 C 0.2040(4) 0.3899(2) 0.7002(2) 0.0324(6) Uani 1 1 d . . . . .
 H9 H 0.156676 0.356743 0.664114 0.039 Uiso 1 1 calc R U . . .
 C10 C 0.3573(4) 0.35382(19) 0.7307(2) 0.0301(5) Uani 1 1 d . . . . .
 H10 H 0.413841 0.296577 0.715043 0.036 Uiso 1 1 calc R U . . .
 C11 C 0.4278(4) 0.40094(18) 0.78397(18) 0.0276(5) Uani 1 1 d . . . . .
 N12 N 0.5853(3) 0.36008(15) 0.81304(16) 0.0274(4) Uani 1 1 d . . . . .
 C13 C 0.6309(4) 0.3923(2) 0.8765(2) 0.0316(6) Uani 1 1 d . . . . .
 H13 H 0.556505 0.440520 0.904440 0.038 Uiso 1 1 calc R U . . .
 C14 C 0.7943(4) 0.35772(19) 0.9080(2) 0.0305(6) Uani 1 1 d . . . . .
 N15 N 0.8906(3) 0.28510(15) 0.87209(15) 0.0258(4) Uani 1 1 d . . . . .
 C16 C 1.0370(4) 0.25307(19) 0.90169(19) 0.0301(5) Uani 1 1 d . . . . .
 C17 C 1.0978(4) 0.2928(2) 0.9660(2) 0.0354(6) Uani 1 1 d . . . . .
 H17 H 1.203897 0.268286 0.985284 0.042 Uiso 1 1 calc R U . . .
 C18 C 0.9999(5) 0.3677(2) 0.9999(3) 0.0444(8) Uani 1 1 d . . . . .
 H18 H 1.038797 0.396788 1.042414 0.053 Uiso 1 1 calc R U . . .
 C19 C 0.8429(5) 0.4010(2) 0.9719(3) 0.0428(7) Uani 1 1 d . . . . .
 H19 H 0.771284 0.451932 0.995941 0.051 Uiso 1 1 calc R U . . .
 O20 O 1.1203(3) 0.17950(15) 0.86377(15) 0.0353(4) Uani 1 1 d . . . . .
 C21 C 1.2668(5) 0.1327(2) 0.8999(3) 0.0452(8) Uani 1 1 d . . . . .
 H21A H 1.305148 0.075884 0.873095 0.068 Uiso 1 1 calc R U . . .
 H21B H 1.229744 0.119613 0.967104 0.068 Uiso 1 1 calc R U . . .
 H21C H 1.365656 0.170574 0.884191 0.068 Uiso 1 1 calc R U . . .
 C22 C 0.3474(5) 0.4861(2) 0.8042(2) 0.0406(7) Uani 1 1 d . . . . .
 H22 H 0.397194 0.520148 0.838420 0.049 Uiso 1 1 calc R U . . .
 C23 C 0.1936(5) 0.5211(2) 0.7739(2) 0.0420(7) Uani 1 1 d . . . . .
 H23 H 0.137520 0.578564 0.789088 0.050 Uiso 1 1 calc R U . . .
 C24 C -0.0502(4) 0.6816(2) 0.6132(2) 0.0312(6) Uani 1 1 d . . . . .
 H24 H -0.130166 0.697352 0.668115 0.037 Uiso 1 1 calc R U . . .
 C25 C 0.0022(4) 0.7491(2) 0.5413(2) 0.0318(6) Uani 1 1 d . . . . .
 H25 H -0.042119 0.810423 0.547249 0.038 Uiso 1 1 calc R U . . .
 C26 C 0.2164(4) 0.8676(2) 0.4004(2) 0.0309(6) Uani 1 1 d . . . . .
 H26 H 0.208055 0.876592 0.462490 0.037 Uiso 1 1 calc R U . . .
 C27 C 0.2741(4) 0.94035(19) 0.3266(2) 0.0308(5) Uani 1 1 d . . . . .
 N28 N 0.2818(3) 0.92754(16) 0.23792(16) 0.0289(5) Uani 1 1 d . . . . .
 C29 C 0.3336(4) 0.99502(19) 0.1737(2) 0.0313(6) Uani 1 1 d . . . . .
 C30 C 0.3815(4) 1.0761(2) 0.1921(2) 0.0385(7) Uani 1 1 d . . . . .
 H30 H 0.418449 1.122304 0.143329 0.046 Uiso 1 1 calc R U . . .
 C31 C 0.3741(5) 1.0873(2) 0.2815(3) 0.0409(7) Uani 1 1 d . . . . .
 H31 H 0.405963 1.141413 0.296050 0.049 Uiso 1 1 calc R U . . .
 C32 C 0.3187(4) 1.0175(2) 0.3513(2) 0.0376(6) Uani 1 1 d . . . . .
 H32 H 0.312090 1.023193 0.414076 0.045 Uiso 1 1 calc R U . . .
 O33 O 0.3474(3) 0.98989(14) 0.08394(15) 0.0361(5) Uani 1 1 d . . . . .
 C34 C 0.2815(4) 0.9154(2) 0.0575(2) 0.0364(6) Uani 1 1 d . . . . .
 H34A H 0.289150 0.924821 -0.009131 0.055 Uiso 1 1 calc R U . . .
 H34B H 0.157250 0.911403 0.090139 0.055 Uiso 1 1 calc R U . . .
 H34C H 0.352901 0.859218 0.073579 0.055 Uiso 1 1 calc R U . . .
 B44 B 0.6035(5) 0.6769(2) 0.8796(2) 0.0327(6) Uani 1 1 d . . . . .
 F45 F 0.5325(3) 0.73590(13) 0.94459(14) 0.0455(5) Uani 1 1 d . . . . .
 F46 F 0.5996(4) 0.58931(14) 0.92203(17) 0.0579(6) Uani 1 1 d . . . . .
 F47 F 0.5127(4) 0.69080(19) 0.80952(19) 0.0660(7) Uani 1 1 d . . . . .
 F48 F 0.7781(3) 0.69382(19) 0.84037(16) 0.0577(6) Uani 1 1 d . . . . .
 N38 N 0.1683(8) -0.0331(4) 0.5921(3) 0.0884(15) Uani 1 1 d . . . . .
 C39 C 0.1928(6) 0.0226(3) 0.6291(3) 0.0578(10) Uani 1 1 d . . . . .
 C40 C 0.2160(6) 0.0938(3) 0.6777(3) 0.0571(10) Uani 1 1 d . . . . .
 H40A H 0.216153 0.151225 0.637091 0.086 Uiso 1 1 calc R U . . .
 H40B H 0.329375 0.080520 0.697035 0.086 Uiso 1 1 calc R U . . .
 H40C H 0.118429 0.098115 0.732163 0.086 Uiso 1 1 calc R U . . .
 N41 N 0.5406(13) 0.8100(10) 0.5192(11) 0.098(5) Uani 0.59(2) 1 d D . P A 1
 N41A N 0.5751(16) 0.7618(13) 0.4677(10) 0.081(5) Uani 0.41(2) 1 d D . P A 2
 C42 C 0.5239(16) 0.7369(9) 0.5540(9) 0.067(3) Uani 0.59(2) 1 d D . P A 1
 C42A C 0.539(2) 0.7100(12) 0.5278(9) 0.063(3) Uani 0.41(2) 1 d D . P A 2
 C43 C 0.4950(7) 0.6461(5) 0.6041(4) 0.0766(14) Uani 1 1 d D . . . .
 H43A H 0.571352 0.600433 0.568782 0.115 Uiso 0.59(2) 1 calc R U P A 1
 H43B H 0.370186 0.635651 0.612352 0.115 Uiso 0.59(2) 1 calc R U P A 1
 H43C H 0.524129 0.641855 0.664649 0.115 Uiso 0.59(2) 1 calc R U P A 1
 H43D H 0.376583 0.628297 0.607713 0.115 Uiso 0.41(2) 1 calc R U P A 2
 H43E H 0.494843 0.672009 0.660177 0.115 Uiso 0.41(2) 1 calc R U P A 2
 H43F H 0.582404 0.592880 0.598450 0.115 Uiso 0.41(2) 1 calc R U P A 2
 N35 N 0.0875(5) 0.9380(3) 0.8642(3) 0.0644(9) Uani 1 1 d . . . . .
 C36 C 0.1068(5) 0.8754(3) 0.8275(3) 0.0489(8) Uani 1 1 d . . . . .
 C37 C 0.1332(6) 0.7969(3) 0.7796(3) 0.0575(10) Uani 1 1 d . . . . .
 H37A H 0.167059 0.815283 0.712951 0.086 Uiso 1 1 calc R U . . .
 H37B H 0.022739 0.767719 0.794097 0.086 Uiso 1 1 calc R U . . .
 H37C H 0.227836 0.754237 0.799039 0.086 Uiso 1 1 calc R U . . .

loop_
  _atom_site_aniso_label
  _atom_site_aniso_U_11
  _atom_site_aniso_U_22
  _atom_site_aniso_U_33
  _atom_site_aniso_U_23
  _atom_site_aniso_U_13
  _atom_site_aniso_U_12
 Ag1 0.03914(15) 0.03065(14) 0.02626(14) -0.00391(8) -0.01217(9) 0.00140(8)
 N2 0.0300(11) 0.0276(11) 0.0234(11) 0.0003(8) -0.0071(8) -0.0006(8)
 C3 0.0273(12) 0.0301(13) 0.0237(12) 0.0009(10) -0.0089(10) -0.0031(10)
 C4 0.0333(13) 0.0317(14) 0.0270(13) -0.0041(11) -0.0053(10) -0.0049(10)
 C5 0.0360(14) 0.0286(13) 0.0317(14) 0.0012(11) -0.0073(11) -0.0027(10)
 C6 0.0267(12) 0.0324(13) 0.0260(13) 0.0024(10) -0.0093(10) -0.0033(10)
 C7 0.0310(13) 0.0348(14) 0.0278(13) 0.0050(11) -0.0069(11) -0.0035(11)
 C8 0.0310(13) 0.0309(13) 0.0231(12) 0.0047(10) -0.0053(10) -0.0052(10)
 C9 0.0357(14) 0.0317(14) 0.0323(14) -0.0018(11) -0.0123(11) -0.0067(11)
 C10 0.0361(14) 0.0258(12) 0.0293(13) -0.0024(10) -0.0094(11) -0.0032(10)
 C11 0.0328(13) 0.0275(12) 0.0224(12) 0.0033(9) -0.0091(10) -0.0048(10)
 N12 0.0315(11) 0.0271(11) 0.0231(10) 0.0018(8) -0.0078(8) -0.0029(8)
 C13 0.0348(14) 0.0296(13) 0.0311(14) -0.0045(11) -0.0097(11) -0.0002(11)
 C14 0.0347(14) 0.0300(13) 0.0280(13) -0.0013(10) -0.0105(11) -0.0040(11)
 N15 0.0289(11) 0.0281(11) 0.0220(10) 0.0009(8) -0.0103(8) -0.0050(8)
 C16 0.0338(13) 0.0295(13) 0.0271(13) 0.0018(10) -0.0084(10) -0.0065(10)
 C17 0.0361(14) 0.0412(16) 0.0338(15) 0.0002(12) -0.0189(12) -0.0072(12)
 C18 0.0498(19) 0.0449(18) 0.0469(19) -0.0097(14) -0.0258(15) -0.0031(14)
 C19 0.0496(18) 0.0394(16) 0.0460(18) -0.0138(14) -0.0219(15) 0.0029(13)
 O20 0.0350(10) 0.0358(11) 0.0365(11) -0.0042(8) -0.0151(8) 0.0047(8)
 C21 0.0436(17) 0.0428(17) 0.052(2) -0.0041(14) -0.0247(15) 0.0092(14)
 C22 0.0522(18) 0.0343(15) 0.0424(17) -0.0108(13) -0.0265(15) 0.0066(13)
 C23 0.0555(19) 0.0353(16) 0.0403(17) -0.0110(13) -0.0257(15) 0.0124(14)
 C24 0.0311(13) 0.0347(14) 0.0255(13) -0.0004(11) -0.0051(10) -0.0004(10)
 C25 0.0368(14) 0.0302(13) 0.0260(13) -0.0020(10) -0.0062(11) 0.0017(11)
 C26 0.0347(14) 0.0317(14) 0.0263(13) -0.0026(11) -0.0082(11) -0.0020(11)
 C27 0.0320(13) 0.0285(13) 0.0314(14) -0.0012(11) -0.0081(11) -0.0025(10)
 N28 0.0295(11) 0.0274(11) 0.0280(11) 0.0021(9) -0.0070(9) -0.0007(8)
 C29 0.0302(13) 0.0274(13) 0.0323(14) 0.0033(11) -0.0060(11) 0.0016(10)
 C30 0.0399(15) 0.0283(14) 0.0422(17) 0.0044(12) -0.0047(13) -0.0037(11)
 C31 0.0466(17) 0.0263(14) 0.0489(18) -0.0060(12) -0.0067(14) -0.0060(12)
 C32 0.0437(16) 0.0323(14) 0.0361(15) -0.0056(12) -0.0063(12) -0.0043(12)
 O33 0.0422(11) 0.0342(11) 0.0295(10) 0.0055(8) -0.0072(9) -0.0078(8)
 C34 0.0417(16) 0.0384(16) 0.0293(14) 0.0030(11) -0.0112(12) -0.0076(12)
 B44 0.0364(16) 0.0288(15) 0.0354(16) -0.0015(12) -0.0137(13) -0.0042(12)
 F45 0.0574(12) 0.0325(9) 0.0413(10) -0.0050(8) -0.0003(9) -0.0043(8)
 F46 0.0817(16) 0.0301(10) 0.0605(14) 0.0032(9) -0.0189(12) -0.0054(10)
 F47 0.0758(16) 0.0730(16) 0.0629(15) -0.0054(12) -0.0468(13) -0.0026(12)
 F48 0.0452(11) 0.0870(17) 0.0424(11) -0.0130(11) -0.0040(9) -0.0166(11)
 N38 0.131(4) 0.091(3) 0.049(2) -0.029(2) -0.008(2) -0.028(3)
 C39 0.062(2) 0.070(3) 0.0393(19) -0.0121(18) -0.0076(17) 0.0003(19)
 C40 0.051(2) 0.063(2) 0.060(2) -0.020(2) -0.0161(18) 0.0062(17)
 N41 0.066(5) 0.124(7) 0.097(10) 0.021(7) -0.024(5) -0.008(5)
 N41A 0.053(6) 0.121(10) 0.070(7) -0.001(7) -0.019(5) -0.017(6)
 C42 0.035(4) 0.115(6) 0.049(5) -0.004(5) -0.013(4) -0.008(5)
 C42A 0.041(6) 0.106(8) 0.049(5) -0.025(5) -0.016(5) -0.008(6)
 C43 0.066(3) 0.112(4) 0.062(3) -0.016(2) -0.025(2) -0.021(3)
 N35 0.070(2) 0.066(2) 0.064(2) -0.0211(19) -0.0262(18) 0.0061(18)
 C36 0.0396(17) 0.059(2) 0.050(2) -0.0054(17) -0.0154(15) -0.0014(15)
 C37 0.058(2) 0.052(2) 0.065(3) -0.0141(19) -0.0124(19) -0.0076(17)

_geom_special_details
;
 All esds (except the esd in the dihedral angle between two l.s. planes)
 are estimated using the full covariance matrix.  The cell esds are taken
 into account individually in the estimation of esds in distances, angles
 and torsion angles; correlations between esds in cell parameters are only
 used when they are defined by crystal symmetry.  An approximate (isotropic)
 treatment of cell esds is used for estimating esds involving l.s. planes.
;
loop_
  _geom_bond_atom_site_label_1
  _geom_bond_atom_site_label_2
  _geom_bond_distance
  _geom_bond_site_symmetry_2
  _geom_bond_publ_flag
 Ag1 N2 2.242(2) . ?
 Ag1 N12 2.398(2) 2_666 ?
 Ag1 N15 2.277(2) 2_666 ?
 Ag1 N28 2.535(2) . ?
 N2 C3 1.427(3) . ?
 N2 C26 1.279(4) . ?
 C3 C4 1.389(4) . ?
 C3 C25 1.395(4) . ?
 C4 H4 0.9500 . ?
 C4 C5 1.386(4) . ?
 C5 H5 0.9500 . ?
 C5 C6 1.395(4) . ?
 C6 C7 1.518(4) . ?
 C6 C24 1.390(4) . ?
 C7 H7A 0.9900 . ?
 C7 H7B 0.9900 . ?
 C7 C8 1.517(4) . ?
 C8 C9 1.386(4) . ?
 C8 C23 1.395(4) . ?
 C9 H9 0.9500 . ?
 C9 C10 1.394(4) . ?
 C10 H10 0.9500 . ?
 C10 C11 1.387(4) . ?
 C11 N12 1.431(3) . ?
 C11 C22 1.393(4) . ?
 N12 C13 1.271(4) . ?
 C13 H13 0.9500 . ?
 C13 C14 1.467(4) . ?
 C14 N15 1.347(4) . ?
 C14 C19 1.384(4) . ?
 N15 C16 1.327(4) . ?
 C16 C17 1.408(4) . ?
 C16 O20 1.340(4) . ?
 C17 H17 0.9500 . ?
 C17 C18 1.368(5) . ?
 C18 H18 0.9500 . ?
 C18 C19 1.394(5) . ?
 C19 H19 0.9500 . ?
 O20 C21 1.435(4) . ?
 C21 H21A 0.9800 . ?
 C21 H21B 0.9800 . ?
 C21 H21C 0.9800 . ?
 C22 H22 0.9500 . ?
 C22 C23 1.392(4) . ?
 C23 H23 0.9500 . ?
 C24 H24 0.9500 . ?
 C24 C25 1.391(4) . ?
 C25 H25 0.9500 . ?
 C26 H26 0.9500 . ?
 C26 C27 1.468(4) . ?
 C27 N28 1.362(4) . ?
 C27 C32 1.379(4) . ?
 N28 C29 1.324(4) . ?
 C29 C30 1.404(4) . ?
 C29 O33 1.341(4) . ?
 C30 H30 0.9500 . ?
 C30 C31 1.368(5) . ?
 C31 H31 0.9500 . ?
 C31 C32 1.400(5) . ?
 C32 H32 0.9500 . ?
 O33 C34 1.434(4) . ?
 C34 H34A 0.9800 . ?
 C34 H34B 0.9800 . ?
 C34 H34C 0.9800 . ?
 B44 F45 1.387(4) . ?
 B44 F46 1.375(4) . ?
 B44 F47 1.379(4) . ?
 B44 F48 1.387(4) . ?
 N38 C39 1.132(6) . ?
 C39 C40 1.435(6) . ?
 C40 H40A 0.9800 . ?
 C40 H40B 0.9800 . ?
 C40 H40C 0.9800 . ?
 N41 C42 1.154(12) . ?
 N41A C42A 1.108(13) . ?
 C42 C43 1.474(12) . ?
 C42A C43 1.387(13) . ?
 C43 H43A 0.9800 . ?
 C43 H43B 0.9800 . ?
 C43 H43C 0.9800 . ?
 C43 H43D 0.9800 . ?
 C43 H43E 0.9800 . ?
 C43 H43F 0.9800 . ?
 N35 C36 1.137(6) . ?
 C36 C37 1.442(6) . ?
 C37 H37A 0.9800 . ?
 C37 H37B 0.9800 . ?
 C37 H37C 0.9800 . ?

loop_
  _geom_angle_atom_site_label_1
  _geom_angle_atom_site_label_2
  _geom_angle_atom_site_label_3
  _geom_angle
  _geom_angle_site_symmetry_1
  _geom_angle_site_symmetry_3
  _geom_angle_publ_flag
 N2 Ag1 N12 117.84(8) . 2_666 ?
 N2 Ag1 N15 148.94(8) . 2_666 ?
 N2 Ag1 N28 71.51(8) . . ?
 N12 Ag1 N28 128.80(8) 2_666 . ?
 N15 Ag1 N12 72.76(8) 2_666 2_666 ?
 N15 Ag1 N28 126.84(8) 2_666 . ?
 C3 N2 Ag1 122.76(17) . . ?
 C26 N2 Ag1 118.99(19) . . ?
 C26 N2 C3 118.2(2) . . ?
 C4 C3 N2 118.0(2) . . ?
 C4 C3 C25 119.5(3) . . ?
 C25 C3 N2 122.5(2) . . ?
 C3 C4 H4 119.9 . . ?
 C5 C4 C3 120.2(3) . . ?
 C5 C4 H4 119.9 . . ?
 C4 C5 H5 119.5 . . ?
 C4 C5 C6 121.1(3) . . ?
 C6 C5 H5 119.5 . . ?
 C5 C6 C7 120.4(3) . . ?
 C24 C6 C5 118.3(3) . . ?
 C24 C6 C7 121.3(3) . . ?
 C6 C7 H7A 109.5 . . ?
 C6 C7 H7B 109.5 . . ?
 H7A C7 H7B 108.1 . . ?
 C8 C7 C6 110.7(2) . . ?
 C8 C7 H7A 109.5 . . ?
 C8 C7 H7B 109.5 . . ?
 C9 C8 C7 122.5(3) . . ?
 C9 C8 C23 118.3(3) . . ?
 C23 C8 C7 119.1(3) . . ?
 C8 C9 H9 119.6 . . ?
 C8 C9 C10 120.8(3) . . ?
 C10 C9 H9 119.6 . . ?
 C9 C10 H10 119.8 . . ?
 C11 C10 C9 120.4(3) . . ?
 C11 C10 H10 119.8 . . ?
 C10 C11 N12 117.6(2) . . ?
 C10 C11 C22 119.4(3) . . ?
 C22 C11 N12 122.9(3) . . ?
 C11 N12 Ag1 130.03(18) . 2_666 ?
 C13 N12 Ag1 111.69(19) . 2_666 ?
 C13 N12 C11 118.3(2) . . ?
 N12 C13 H13 118.9 . . ?
 N12 C13 C14 122.2(3) . . ?
 C14 C13 H13 118.9 . . ?
 N15 C14 C13 117.7(2) . . ?
 N15 C14 C19 123.4(3) . . ?
 C19 C14 C13 119.0(3) . . ?
 C14 N15 Ag1 115.49(17) . 2_666 ?
 C16 N15 Ag1 126.92(19) . 2_666 ?
 C16 N15 C14 117.6(2) . . ?
 N15 C16 C17 123.2(3) . . ?
 N15 C16 O20 112.9(2) . . ?
 O20 C16 C17 123.8(3) . . ?
 C16 C17 H17 120.9 . . ?
 C18 C17 C16 118.1(3) . . ?
 C18 C17 H17 120.9 . . ?
 C17 C18 H18 120.1 . . ?
 C17 C18 C19 119.7(3) . . ?
 C19 C18 H18 120.1 . . ?
 C14 C19 C18 118.0(3) . . ?
 C14 C19 H19 121.0 . . ?
 C18 C19 H19 121.0 . . ?
 C16 O20 C21 117.3(2) . . ?
 O20 C21 H21A 109.5 . . ?
 O20 C21 H21B 109.5 . . ?
 O20 C21 H21C 109.5 . . ?
 H21A C21 H21B 109.5 . . ?
 H21A C21 H21C 109.5 . . ?
 H21B C21 H21C 109.5 . . ?
 C11 C22 H22 120.2 . . ?
 C23 C22 C11 119.5(3) . . ?
 C23 C22 H22 120.2 . . ?
 C8 C23 H23 119.3 . . ?
 C22 C23 C8 121.5(3) . . ?
 C22 C23 H23 119.3 . . ?
 C6 C24 H24 119.4 . . ?
 C6 C24 C25 121.1(3) . . ?
 C25 C24 H24 119.4 . . ?
 C3 C25 H25 120.1 . . ?
 C24 C25 C3 119.8(3) . . ?
 C24 C25 H25 120.1 . . ?
 N2 C26 H26 118.8 . . ?
 N2 C26 C27 122.4(3) . . ?
 C27 C26 H26 118.8 . . ?
 N28 C27 C26 118.3(3) . . ?
 N28 C27 C32 123.8(3) . . ?
 C32 C27 C26 117.8(3) . . ?
 C27 N28 Ag1 108.43(17) . . ?
 C29 N28 Ag1 135.0(2) . . ?
 C29 N28 C27 116.3(3) . . ?
 N28 C29 C30 124.0(3) . . ?
 N28 C29 O33 121.6(3) . . ?
 O33 C29 C30 114.4(3) . . ?
 C29 C30 H30 120.6 . . ?
 C31 C30 C29 118.8(3) . . ?
 C31 C30 H30 120.6 . . ?
 C30 C31 H31 120.7 . . ?
 C30 C31 C32 118.7(3) . . ?
 C32 C31 H31 120.7 . . ?
 C27 C32 C31 118.4(3) . . ?
 C27 C32 H32 120.8 . . ?
 C31 C32 H32 120.8 . . ?
 C29 O33 C34 119.3(2) . . ?
 O33 C34 H34A 109.5 . . ?
 O33 C34 H34B 109.5 . . ?
 O33 C34 H34C 109.5 . . ?
 H34A C34 H34B 109.5 . . ?
 H34A C34 H34C 109.5 . . ?
 H34B C34 H34C 109.5 . . ?
 F45 B44 F48 108.5(3) . . ?
 F46 B44 F45 109.4(3) . . ?
 F46 B44 F47 110.9(3) . . ?
 F46 B44 F48 109.5(3) . . ?
 F47 B44 F45 111.1(3) . . ?
 F47 B44 F48 107.4(3) . . ?
 N38 C39 C40 177.6(5) . . ?
 C39 C40 H40A 109.5 . . ?
 C39 C40 H40B 109.5 . . ?
 C39 C40 H40C 109.5 . . ?
 H40A C40 H40B 109.5 . . ?
 H40A C40 H40C 109.5 . . ?
 H40B C40 H40C 109.5 . . ?
 N41 C42 C43 176.0(13) . . ?
 N41A C42A C43 178.9(17) . . ?
 C42 C43 H43A 109.5 . . ?
 C42 C43 H43B 109.5 . . ?
 C42 C43 H43C 109.5 . . ?
 C42A C43 H43D 109.5 . . ?
 C42A C43 H43E 109.5 . . ?
 C42A C43 H43F 109.5 . . ?
 H43A C43 H43B 109.5 . . ?
 H43A C43 H43C 109.5 . . ?
 H43B C43 H43C 109.5 . . ?
 H43D C43 H43E 109.5 . . ?
 H43D C43 H43F 109.5 . . ?
 H43E C43 H43F 109.5 . . ?
 N35 C36 C37 179.0(5) . . ?
 C36 C37 H37A 109.5 . . ?
 C36 C37 H37B 109.5 . . ?
 C36 C37 H37C 109.5 . . ?
 H37A C37 H37B 109.5 . . ?
 H37A C37 H37C 109.5 . . ?
 H37B C37 H37C 109.5 . . ?

loop_
  _geom_torsion_atom_site_label_1
  _geom_torsion_atom_site_label_2
  _geom_torsion_atom_site_label_3
  _geom_torsion_atom_site_label_4
  _geom_torsion
  _geom_torsion_site_symmetry_1
  _geom_torsion_site_symmetry_2
  _geom_torsion_site_symmetry_3
  _geom_torsion_site_symmetry_4
  _geom_torsion_publ_flag
 Ag1 N2 C3 C4 37.4(3) . . . . ?
 Ag1 N2 C3 C25 -141.3(2) . . . . ?
 Ag1 N2 C26 C27 4.2(4) . . . . ?
 Ag1 N12 C13 C14 4.1(4) 2_666 . . . ?
 Ag1 N15 C16 C17 176.3(2) 2_666 . . . ?
 Ag1 N15 C16 O20 -3.5(3) 2_666 . . . ?
 Ag1 N28 C29 C30 -172.6(2) . . . . ?
 Ag1 N28 C29 O33 6.1(4) . . . . ?
 N2 C3 C4 C5 -179.9(3) . . . . ?
 N2 C3 C25 C24 179.4(3) . . . . ?
 N2 C26 C27 N28 1.4(4) . . . . ?
 N2 C26 C27 C32 -178.0(3) . . . . ?
 C3 N2 C26 C27 -179.0(2) . . . . ?
 C3 C4 C5 C6 1.0(4) . . . . ?
 C4 C3 C25 C24 0.6(4) . . . . ?
 C4 C5 C6 C7 -179.0(3) . . . . ?
 C4 C5 C6 C24 -0.5(4) . . . . ?
 C5 C6 C7 C8 62.8(4) . . . . ?
 C5 C6 C24 C25 0.0(4) . . . . ?
 C6 C7 C8 C9 -102.3(3) . . . . ?
 C6 C7 C8 C23 73.3(4) . . . . ?
 C6 C24 C25 C3 -0.1(4) . . . . ?
 C7 C6 C24 C25 178.5(3) . . . . ?
 C7 C8 C9 C10 176.3(3) . . . . ?
 C7 C8 C23 C22 -175.9(3) . . . . ?
 C8 C9 C10 C11 0.4(4) . . . . ?
 C9 C8 C23 C22 -0.1(5) . . . . ?
 C9 C10 C11 N12 -180.0(3) . . . . ?
 C9 C10 C11 C22 -2.1(4) . . . . ?
 C10 C11 N12 Ag1 12.6(3) . . . 2_666 ?
 C10 C11 N12 C13 -165.8(3) . . . . ?
 C10 C11 C22 C23 2.6(5) . . . . ?
 C11 N12 C13 C14 -177.2(3) . . . . ?
 C11 C22 C23 C8 -1.5(6) . . . . ?
 N12 C11 C22 C23 -179.6(3) . . . . ?
 N12 C13 C14 N15 -4.8(4) . . . . ?
 N12 C13 C14 C19 174.7(3) . . . . ?
 C13 C14 N15 Ag1 2.6(3) . . . 2_666 ?
 C13 C14 N15 C16 -179.0(3) . . . . ?
 C13 C14 C19 C18 -179.2(3) . . . . ?
 C14 N15 C16 C17 -1.9(4) . . . . ?
 C14 N15 C16 O20 178.3(2) . . . . ?
 N15 C14 C19 C18 0.3(5) . . . . ?
 N15 C16 C17 C18 0.5(5) . . . . ?
 N15 C16 O20 C21 -172.1(3) . . . . ?
 C16 C17 C18 C19 1.4(5) . . . . ?
 C17 C16 O20 C21 8.1(4) . . . . ?
 C17 C18 C19 C14 -1.7(6) . . . . ?
 C19 C14 N15 Ag1 -176.9(3) . . . 2_666 ?
 C19 C14 N15 C16 1.5(4) . . . . ?
 O20 C16 C17 C18 -179.7(3) . . . . ?
 C22 C11 N12 Ag1 -165.2(2) . . . 2_666 ?
 C22 C11 N12 C13 16.4(4) . . . . ?
 C23 C8 C9 C10 0.7(4) . . . . ?
 C24 C6 C7 C8 -115.7(3) . . . . ?
 C25 C3 C4 C5 -1.1(4) . . . . ?
 C26 N2 C3 C4 -139.2(3) . . . . ?
 C26 N2 C3 C25 42.0(4) . . . . ?
 C26 C27 N28 Ag1 -5.2(3) . . . . ?
 C26 C27 N28 C29 179.7(3) . . . . ?
 C26 C27 C32 C31 179.9(3) . . . . ?
 C27 N28 C29 C30 0.9(4) . . . . ?
 C27 N28 C29 O33 179.6(3) . . . . ?
 N28 C27 C32 C31 0.5(5) . . . . ?
 N28 C29 C30 C31 -0.4(5) . . . . ?
 N28 C29 O33 C34 8.9(4) . . . . ?
 C29 C30 C31 C32 -0.1(5) . . . . ?
 C30 C29 O33 C34 -172.3(3) . . . . ?
 C30 C31 C32 C27 0.0(5) . . . . ?
 C32 C27 N28 Ag1 174.2(2) . . . . ?
 C32 C27 N28 C29 -0.9(4) . . . . ?
 O33 C29 C30 C31 -179.2(3) . . . . ?

_shelx_res_file
;
TITL tf-eb1_a.res in P-1
    tf-eb1.res
    created by SHELXL-2019/2 at 15:18:56 on 10-May-2024
REM Old TITL tf-eb1 in P-1
REM SHELXT solution in P-1: R1 0.099, Rweak 0.012, Alpha 0.046
REM <I/s> 0.000 for 0 systematic absences, Orientation as input
REM Formula found by SHELXT: C34 B N6 O2 F4 Ag
CELL 1.54184 7.7826 15.0336 15.0412 81.341 76.289 82.447
ZERR 1 0.0002 0.0004 0.0003 0.002 0.002 0.002
LATT 1
SFAC C H B N O F Ag
UNIT 66 66 2 14 4 8 2
SADI C43 C42 C43 C42A
SADI C42 N41 C42A N41A
SADI 0.04 C43 N41 C43 N41A
RIGU C42 N41 C43 C42A N41A

L.S. 10
PLAN  1
SIZE 0.04 0.05 0.38
TEMP -173
CONF
BOND
list 4
fmap 2 53
MORE -1
BOND $H
ACTA
REM <olex2.extras>
REM <HklSrc "%.\\tf-eb1.hkl">
REM </olex2.extras>

WGHT    0.085500    1.178300
EXTI    0.002831
FVAR       0.35805   0.58764
AG1   7    0.214523    0.767215    0.237151    11.00000    0.03914    0.03065 =
         0.02626   -0.00391   -0.01217    0.00140
N2    4    0.177148    0.792592    0.383982    11.00000    0.02995    0.02757 =
         0.02343    0.00026   -0.00706   -0.00061
C3    1    0.119797    0.726608    0.460491    11.00000    0.02729    0.03006 =
         0.02367    0.00092   -0.00885   -0.00312
C4    1    0.182065    0.636636    0.452404    11.00000    0.03334    0.03168 =
         0.02704   -0.00413   -0.00534   -0.00487
AFIX  43
H4    2    0.260621    0.620707    0.397145    11.00000   -1.20000
AFIX   0
C5    1    0.129924    0.570031    0.524718    11.00000    0.03603    0.02859 =
         0.03174    0.00116   -0.00730   -0.00271
AFIX  43
H5    2    0.174853    0.508812    0.518810    11.00000   -1.20000
AFIX   0
C6    1    0.012573    0.591400    0.606026    11.00000    0.02667    0.03239 =
         0.02604    0.00235   -0.00934   -0.00332
C7    1   -0.040701    0.517778    0.685154    11.00000    0.03101    0.03482 =
         0.02784    0.00497   -0.00689   -0.00352
AFIX  23
H7A   2   -0.130015    0.544206    0.735356    11.00000   -1.20000
H7B   2   -0.095478    0.471556    0.663653    11.00000   -1.20000
AFIX   0
C8    1    0.119866    0.473552    0.721670    11.00000    0.03102    0.03094 =
         0.02307    0.00467   -0.00528   -0.00515
C9    1    0.204013    0.389906    0.700155    11.00000    0.03573    0.03174 =
         0.03229   -0.00176   -0.01230   -0.00670
AFIX  43
H9    2    0.156676    0.356743    0.664114    11.00000   -1.20000
AFIX   0
C10   1    0.357285    0.353822    0.730748    11.00000    0.03614    0.02575 =
         0.02930   -0.00240   -0.00939   -0.00317
AFIX  43
H10   2    0.413841    0.296577    0.715043    11.00000   -1.20000
AFIX   0
C11   1    0.427765    0.400945    0.783967    11.00000    0.03284    0.02747 =
         0.02241    0.00326   -0.00914   -0.00483
N12   4    0.585311    0.360083    0.813036    11.00000    0.03149    0.02708 =
         0.02308    0.00181   -0.00785   -0.00292
C13   1    0.630875    0.392345    0.876483    11.00000    0.03477    0.02960 =
         0.03109   -0.00451   -0.00970   -0.00021
AFIX  43
H13   2    0.556505    0.440520    0.904440    11.00000   -1.20000
AFIX   0
C14   1    0.794329    0.357719    0.907976    11.00000    0.03475    0.02995 =
         0.02803   -0.00128   -0.01048   -0.00400
N15   4    0.890566    0.285102    0.872088    11.00000    0.02889    0.02809 =
         0.02201    0.00089   -0.01031   -0.00504
C16   1    1.037007    0.253071    0.901689    11.00000    0.03382    0.02953 =
         0.02706    0.00181   -0.00842   -0.00652
C17   1    1.097842    0.292785    0.965996    11.00000    0.03614    0.04121 =
         0.03380    0.00023   -0.01888   -0.00725
AFIX  43
H17   2    1.203897    0.268286    0.985284    11.00000   -1.20000
AFIX   0
C18   1    0.999919    0.367656    0.999928    11.00000    0.04984    0.04491 =
         0.04686   -0.00969   -0.02583   -0.00313
AFIX  43
H18   2    1.038797    0.396788    1.042414    11.00000   -1.20000
AFIX   0
C19   1    0.842851    0.401023    0.971902    11.00000    0.04963    0.03941 =
         0.04596   -0.01382   -0.02194    0.00294
AFIX  43
H19   2    0.771284    0.451932    0.995941    11.00000   -1.20000
AFIX   0
O20   5    1.120339    0.179498    0.863772    11.00000    0.03504    0.03577 =
         0.03647   -0.00415   -0.01507    0.00471
C21   1    1.266826    0.132684    0.899903    11.00000    0.04360    0.04278 =
         0.05211   -0.00415   -0.02472    0.00917
AFIX 137
H21A  2    1.305148    0.075884    0.873095    11.00000   -1.50000
H21B  2    1.229744    0.119613    0.967104    11.00000   -1.50000
H21C  2    1.365656    0.170574    0.884191    11.00000   -1.50000
AFIX   0
C22   1    0.347399    0.486140    0.804195    11.00000    0.05224    0.03433 =
         0.04237   -0.01077   -0.02652    0.00660
AFIX  43
H22   2    0.397194    0.520148    0.838420    11.00000   -1.20000
AFIX   0
C23   1    0.193555    0.521080    0.773880    11.00000    0.05552    0.03531 =
         0.04026   -0.01100   -0.02574    0.01243
AFIX  43
H23   2    0.137520    0.578564    0.789088    11.00000   -1.20000
AFIX   0
C24   1   -0.050184    0.681588    0.613192    11.00000    0.03108    0.03471 =
         0.02550   -0.00042   -0.00513   -0.00044
AFIX  43
H24   2   -0.130166    0.697352    0.668115    11.00000   -1.20000
AFIX   0
C25   1    0.002151    0.749130    0.541308    11.00000    0.03685    0.03023 =
         0.02603   -0.00198   -0.00622    0.00172
AFIX  43
H25   2   -0.042119    0.810423    0.547249    11.00000   -1.20000
AFIX   0
C26   1    0.216447    0.867611    0.400362    11.00000    0.03471    0.03165 =
         0.02635   -0.00260   -0.00820   -0.00202
AFIX  43
H26   2    0.208055    0.876592    0.462490    11.00000   -1.20000
AFIX   0
C27   1    0.274070    0.940346    0.326563    11.00000    0.03203    0.02851 =
         0.03136   -0.00121   -0.00812   -0.00246
N28   4    0.281850    0.927539    0.237921    11.00000    0.02947    0.02736 =
         0.02796    0.00206   -0.00704   -0.00073
C29   1    0.333588    0.995020    0.173667    11.00000    0.03023    0.02744 =
         0.03235    0.00326   -0.00604    0.00163
C30   1    0.381536    1.076090    0.192102    11.00000    0.03989    0.02835 =
         0.04219    0.00435   -0.00467   -0.00366
AFIX  43
H30   2    0.418449    1.122304    0.143329    11.00000   -1.20000
AFIX   0
C31   1    0.374138    1.087317    0.281530    11.00000    0.04657    0.02633 =
         0.04885   -0.00595   -0.00668   -0.00600
AFIX  43
H31   2    0.405963    1.141413    0.296050    11.00000   -1.20000
AFIX   0
C32   1    0.318746    1.017527    0.351260    11.00000    0.04373    0.03231 =
         0.03613   -0.00557   -0.00630   -0.00428
AFIX  43
H32   2    0.312090    1.023193    0.414076    11.00000   -1.20000
AFIX   0
O33   5    0.347435    0.989893    0.083939    11.00000    0.04221    0.03416 =
         0.02954    0.00550   -0.00719   -0.00780
C34   1    0.281465    0.915444    0.057543    11.00000    0.04174    0.03843 =
         0.02932    0.00305   -0.01123   -0.00761
AFIX 137
H34A  2    0.289150    0.924821   -0.009131    11.00000   -1.50000
H34B  2    0.157250    0.911403    0.090139    11.00000   -1.50000
H34C  2    0.352901    0.859218    0.073579    11.00000   -1.50000
AFIX   0

B44   3    0.603486    0.676877    0.879595    11.00000    0.03636    0.02881 =
         0.03543   -0.00145   -0.01372   -0.00421
F45   6    0.532509    0.735896    0.944586    11.00000    0.05742    0.03250 =
         0.04129   -0.00504   -0.00031   -0.00427
F46   6    0.599625    0.589309    0.922034    11.00000    0.08172    0.03012 =
         0.06051    0.00321   -0.01892   -0.00536
F47   6    0.512696    0.690804    0.809515    11.00000    0.07580    0.07299 =
         0.06289   -0.00545   -0.04679   -0.00265
F48   6    0.778061    0.693818    0.840370    11.00000    0.04519    0.08701 =
         0.04239   -0.01300   -0.00395   -0.01661
N38   4    0.168331   -0.033125    0.592056    11.00000    0.13080    0.09054 =
         0.04859   -0.02866   -0.00762   -0.02753
C39   1    0.192780    0.022627    0.629092    11.00000    0.06212    0.06983 =
         0.03929   -0.01210   -0.00760    0.00025
C40   1    0.216028    0.093763    0.677700    11.00000    0.05093    0.06255 =
         0.06028   -0.01996   -0.01608    0.00617
AFIX 137
H40A  2    0.216153    0.151225    0.637091    11.00000   -1.50000
H40B  2    0.329375    0.080520    0.697035    11.00000   -1.50000
H40C  2    0.118429    0.098115    0.732163    11.00000   -1.50000
AFIX   0

PART 1
N41   4    0.540551    0.810036    0.519238    21.00000    0.06587    0.12362 =
         0.09719    0.02068   -0.02447   -0.00818
PART 2
N41A  4    0.575098    0.761752    0.467703   -21.00000    0.05282    0.12142 =
         0.06963   -0.00132   -0.01936   -0.01741
PART 1
C42   1    0.523901    0.736909    0.553972    21.00000    0.03531    0.11521 =
         0.04902   -0.00376   -0.01267   -0.00815
PART 2
C42A  1    0.538950    0.709960    0.527831   -21.00000    0.04137    0.10566 =
         0.04942   -0.02529   -0.01641   -0.00755
PART 0
C43   1    0.494966    0.646099    0.604145    11.00000    0.06583    0.11205 =
         0.06239   -0.01604   -0.02495   -0.02065
PART 1
AFIX 137
H43A  2    0.571352    0.600433    0.568782    21.00000   -1.50000
H43B  2    0.370186    0.635651    0.612352    21.00000   -1.50000
H43C  2    0.524129    0.641855    0.664649    21.00000   -1.50000
AFIX 137
PART 2
H43D  2    0.376583    0.628297    0.607713   -21.00000   -1.50000
H43E  2    0.494843    0.672009    0.660177   -21.00000   -1.50000
H43F  2    0.582404    0.592880    0.598450   -21.00000   -1.50000
AFIX   0

PART 0
N35   4    0.087486    0.937976    0.864239    11.00000    0.07045    0.06557 =
         0.06369   -0.02114   -0.02622    0.00610
C36   1    0.106820    0.875405    0.827532    11.00000    0.03964    0.05893 =
         0.04964   -0.00536   -0.01544   -0.00138
C37   1    0.133229    0.796871    0.779563    11.00000    0.05808    0.05202 =
         0.06464   -0.01406   -0.01241   -0.00757
AFIX 137
H37A  2    0.167059    0.815283    0.712951    11.00000   -1.50000
H37B  2    0.022739    0.767719    0.794097    11.00000   -1.50000
H37C  2    0.227836    0.754237    0.799039    11.00000   -1.50000
AFIX   0
HKLF 4




REM  tf-eb1_a.res in P-1
REM wR2 = 0.1291, GooF = S = 1.127, Restrained GooF = 1.129 for all data
REM R1 = 0.0456 for 6877 Fo > 4sig(Fo) and 0.0466 for all 7158 data
REM 458 parameters refined using 21 restraints

END

WGHT      0.0853      1.1788

REM Highest difference peak  0.898,  deepest hole -1.355,  1-sigma level  0.119
Q1    1   0.2137  0.8207  0.2636  11.00000  0.05    0.90
;
_shelx_res_checksum                51461
_shelx_hkl_file
;
  -8  -9   1   46.39    1.08
  -8  -9   2    4.06    0.54
  -8  -8   1   38.02    1.09
  -8  -8   2    8.92    0.71
  -8  -8   3    0.34    0.57
  -8  -8   4    5.68    0.51
  -8  -7   1   21.28    0.95
  -8  -7   2    2.02    0.71
  -8  -7   3   45.25    1.18
  -8  -7   4    4.87    0.62
  -8  -7   5    4.57    0.47
  -8  -6   5   13.54    0.69
  -7 -12   0    2.39    0.65
  -7 -12   1   28.35    0.92
  -7 -12   1   22.91    0.70
  -7 -12   2    2.38    0.58
  -7 -12   2    1.45    0.28
  -7 -12   3   11.45    0.60
  -7 -11  -1    2.88    0.73
  -7 -11   0   30.75    1.10
  -7 -11   1    0.36    0.72
  -7 -11   2    7.93    0.78
  -7 -11   2    6.46    0.50
  -7 -11   3    3.80    0.67
  -7 -11   3    2.57    0.37
  -7 -11   4   46.36    1.08
  -7 -10   0    5.96    0.90
  -7 -10   1  101.14    2.10
  -7 -10   2    1.06    0.80
  -7 -10   2    0.80    0.46
  -7 -10   3   18.98    0.96
  -7 -10   3   17.53    0.71
  -7 -10   4    0.88    0.69
  -7 -10   4    0.52    0.36
  -7 -10   5   21.15    0.81
  -7 -10   6    0.39    0.36
  -7  -9   0  106.39    2.25
  -7  -9   1   38.37    1.36
  -7  -9   2   55.80    1.56
  -7  -9   3    7.66    0.92
  -7  -9   3    7.21    0.60
  -7  -9   4   24.26    1.06
  -7  -9   4   20.02    0.78
  -7  -9   5    1.32    0.70
  -7  -9   5    0.88    0.37
  -7  -9   6   20.68    0.79
  -7  -8   4    0.46    0.47
  -7  -8   5    5.18    0.51
  -7  -8   6   12.79    0.81
  -7  -8   6   10.20    0.51
  -7  -8   7   30.12    0.85
  -7  -7   5    9.93    0.65
  -7  -7   6    4.24    0.47
  -7  -7   7   27.31    0.89
  -7  -7   7   17.72    0.57
  -7  -7   8    9.93    0.50
  -7  -6   7    9.55    0.51
  -7  -6   8    0.53    0.53
  -6 -16  -6   31.39    0.70
  -6 -16  -2   26.29    0.74
  -6 -15  -8    9.80    0.45
  -6 -15  -7   14.35    0.59
  -6 -15   0    0.20    0.33
  -6 -15   1    9.85    0.44
  -6 -14  -8   39.38    1.01
  -6 -14  -2   32.52    1.04
  -6 -14  -1    0.49    0.47
  -6 -14   0   26.54    0.90
  -6 -14   1    0.37    0.43
  -6 -14   2   24.35    0.77
  -6 -14   3    2.20    0.35
  -6 -13  -3   10.61    0.74
  -6 -13  -2    0.34    0.55
  -6 -13  -1   30.58    1.16
  -6 -13  -1   32.19    1.12
  -6 -13   0    2.16    0.80
  -6 -13   0    2.36    0.58
  -6 -13   1   63.59    1.56
  -6 -13   1   61.07    1.52
  -6 -13   2    6.50    0.81
  -6 -13   2    7.75    0.63
  -6 -13   3   61.12    1.39
  -6 -13   3   58.62    1.35
  -6 -13   4   10.39    0.68
  -6 -13   4    8.73    0.52
  -6 -13   5   15.85    0.51
  -6 -12  -2   40.60    1.35
  -6 -12  -1    5.63    0.89
  -6 -12  -1    5.30    0.69
  -6 -12   0   18.27    1.08
  -6 -12   0   17.64    0.93
  -6 -12   1    2.63    0.88
  -6 -12   1    3.17    0.64
  -6 -12   2   57.66    1.55
  -6 -12   2   56.22    1.51
  -6 -12   3    2.19    0.81
  -6 -12   3    1.99    0.57
  -6 -12   4   68.86    1.55
  -6 -12   4   64.40    1.50
  -6 -12   5   25.18    0.90
  -6 -12   5   22.60    0.79
  -6 -12   6   17.09    0.65
  -6 -12   6   17.10    0.57
  -6 -11  -2    7.45    0.78
  -6 -11  -1   96.60    2.25
  -6 -11   2    1.99    0.95
  -6 -11   2    1.08    0.62
  -6 -11   3    9.97    1.01
  -6 -11   3    9.41    0.77
  -6 -11   4    8.14    0.95
  -6 -11   4    6.93    0.69
  -6 -11   5   68.57    1.57
  -6 -11   5   63.10    1.51
  -6 -11   6   22.31    0.88
  -6 -11   6   19.64    0.76
  -6 -11   7    6.55    0.52
  -6 -11   7    5.95    0.41
  -6 -10  -2  146.05    2.85
  -6 -10  -2  145.19    2.95
  -6 -10  -1    1.40    0.97
  -6 -10  -1    1.39    0.65
  -6 -10   0   98.95    2.28
  -6 -10   0   98.29    2.31
  -6 -10   1    3.63    1.04
  -6 -10   1    4.64    0.76
  -6 -10   3    1.91    0.99
  -6 -10   4   27.11    1.26
  -6 -10   4   25.40    1.09
  -6 -10   5    8.90    0.99
  -6 -10   5    7.08    0.70
  -6 -10   6   28.64    1.10
  -6 -10   6   25.80    0.96
  -6 -10   7   11.20    0.75
  -6 -10   7    9.61    0.59
  -6 -10   8    6.34    0.48
  -6 -10   8    6.00    0.39
  -6  -9  -2   16.91    1.13
  -6  -9  -1   94.17    2.22
  -6  -9  -1   94.17    2.24
  -6  -9   0  135.78    2.88
  -6  -9   1  144.32    2.99
  -6  -9   2   24.80    1.17
  -6  -9   4    0.31    0.56
  -6  -9   5   40.29    1.29
  -6  -9   6    2.51    0.90
  -6  -9   6    1.99    0.55
  -6  -9   7   54.20    1.37
  -6  -9   7   49.67    1.29
  -6  -9   8    8.16    0.67
  -6  -9   8    6.88    0.52
  -6  -9   9    9.28    0.38
  -6  -8   0    2.99    0.68
  -6  -8   5    0.93    0.59
  -6  -8   6   40.29    1.29
  -6  -8   7    3.66    0.59
  -6  -8   8   59.22    1.36
  -6  -8   8   47.89    1.25
  -6  -8   9    1.45    0.52
  -6  -8   9    0.91    0.36
  -6  -7   4    3.03    0.68
  -6  -7   6    9.36    0.81
  -6  -7   7   31.92    1.16
  -6  -7   8    2.50    0.55
  -6  -7   9   33.87    1.00
  -6  -7   9   30.40    0.92
  -6  -7  10    0.15    0.26
  -6  -6   4   30.60    1.27
  -6  -6   5   28.97    1.26
  -6  -6   7    0.67    0.61
  -6  -6   8   37.42    1.23
  -6  -6   9    0.13    0.48
  -6  -6  10   15.65    0.61
  -6  -5   4    3.44    0.73
  -6  -5   5  225.44    4.18
  -6  -5   6   27.12    1.23
  -6  -5   7   15.45    0.97
  -6  -5   8    4.97    0.72
  -6  -5   9   25.28    0.99
  -6  -5  10    0.72    0.43
  -6  -4   4    5.15    0.79
  -6  -4   5   29.31    1.31
  -6  -4   6   86.10    2.21
  -6  -4   8   77.12    1.95
  -6  -4   9    1.40    0.59
  -6  -4  10   50.64    1.28
  -6  -4  11    0.38    0.31
  -6  -3   5   94.56    2.35
  -6  -3   6   37.06    1.45
  -6  -3   8    1.16    0.68
  -6  -3   9   36.60    1.27
  -6  -3  10    4.27    0.59
  -6  -3  11   54.98    1.19
  -6  -2   5    4.67    0.80
  -6  -2   6  144.86    3.12
  -6  -2   7   67.72    1.95
  -6  -2   8   47.76    1.57
  -6  -2   9   27.94    1.16
  -6  -2  10   25.15    0.98
  -6  -2  11    0.46    0.41
  -6  -1   5   88.13    2.27
  -6  -1   6   30.98    1.37
  -6  -1   7   64.25    1.91
  -6  -1   9    8.35    0.81
  -6  -1  10    6.22    0.67
  -6  -1  11   10.86    0.62
  -6   0   5   45.23    1.60
  -6   0   6    5.95    0.85
  -6   0   7   61.30    1.87
  -6   0   9    3.94    0.73
  -6   0  10   14.20    0.83
  -6   0  11    3.66    0.51
  -6   1   5   54.50    1.77
  -6   1   6   70.53    2.04
  -6   1   7    2.15    0.76
  -6   1   8    7.24    0.85
  -6   1   9   47.57    1.51
  -6   1  10    5.28    0.67
  -6   1  11   44.37    1.13
  -6   2   6   17.38    1.11
  -6   2   8    4.95    0.79
  -6   2   9   39.54    1.37
  -6   2  10   44.93    1.31
  -6   2  11   36.36    0.99
  -6   3   6   55.62    1.78
  -6   3   8    3.09    0.71
  -6   3   9    5.67    0.73
  -6   3  10   36.61    1.14
  -6   3  11   12.80    0.59
  -6   4   7   68.58    1.92
  -6   4   8    0.76    0.65
  -6   4   9   14.61    0.87
  -6   4  10    7.76    0.63
  -6   4  11   13.89    0.54
  -6   5   7    1.30    0.66
  -6   5   8   61.29    1.67
  -6   5   9    2.95    0.59
  -6   5  10   46.80    1.15
  -6   6   7    9.45    0.79
  -6   6   8    0.36    0.55
  -6   6   9   25.02    0.89
  -6   6  10    0.61    0.33
  -6   7   7    8.18    0.70
  -6   7   8   26.29    0.93
  -6   7   9    0.13    0.36
  -6   8   7   17.93    0.76
  -6   8   8    0.03    0.35
  -5 -17  -7    2.29    0.34
  -5 -17  -6   13.01    0.49
  -5 -17  -6   17.14    0.59
  -5 -17  -5    1.07    0.40
  -5 -17  -4   19.55    0.70
  -5 -17  -3   26.20    0.79
  -5 -17  -2    9.88    0.56
  -5 -17  -1   11.98    0.55
  -5 -16  -9   25.03    0.73
  -5 -16  -8    3.51    0.46
  -5 -16  -8    2.31    0.37
  -5 -16   0   39.28    1.01
  -5 -16   0   31.88    0.94
  -5 -16   1    6.98    0.49
  -5 -16   2   25.20    0.70
  -5 -15 -11    7.14    0.40
  -5 -15 -10   57.23    1.24
  -5 -15  -9    6.69    0.50
  -5 -15  -9    7.15    0.59
  -5 -15  -8   48.27    1.22
  -5 -15  -3    1.78    0.58
  -5 -15  -2   37.87    1.23
  -5 -15  -1    6.94    0.69
  -5 -15   0   25.67    0.98
  -5 -15   1    9.54    0.68
  -5 -15   2   12.35    0.68
  -5 -15   3    8.68    0.56
  -5 -15   4    2.59    0.36
  -5 -14 -12    8.21    0.42
  -5 -14 -11   15.76    0.67
  -5 -14 -10    2.79    0.53
  -5 -14  -9   22.94    0.87
  -5 -14  -9   24.13    0.95
  -5 -14  -1   60.37    1.67
  -5 -14   0    3.39    0.68
  -5 -14   0    3.27    0.89
  -5 -14   1   35.70    1.24
  -5 -14   1   34.44    1.28
  -5 -14   2    1.46    0.59
  -5 -14   2    1.46    0.82
  -5 -14   3   20.17    0.89
  -5 -14   3   21.20    0.99
  -5 -14   4   20.69    0.82
  -5 -14   4   21.60    0.91
  -5 -14   5    1.09    0.38
  -5 -14   6    6.26    0.36
  -5 -13 -12   15.55    0.63
  -5 -13 -11   14.43    0.73
  -5 -13 -10   30.77    1.06
  -5 -13  -5    0.64    0.63
  -5 -13  -4  161.52    3.20
  -5 -13  -3   20.93    1.10
  -5 -13  -2   38.92    1.43
  -5 -13  -1   17.81    1.04
  -5 -13   1    0.82    0.93
  -5 -13   2   68.89    1.82
  -5 -13   2   69.34    1.79
  -5 -13   3   18.94    0.97
  -5 -13   3   21.84    1.12
  -5 -13   4   12.74    0.80
  -5 -13   4   12.92    0.96
  -5 -13   5   19.25    0.85
  -5 -13   5   19.92    0.94
  -5 -13   6    4.84    0.50
  -5 -13   6    5.22    0.64
  -5 -13   7   11.49    0.49
  -5 -12 -15   16.44    0.56
  -5 -12 -11   22.45    0.89
  -5 -12 -10   34.92    1.17
  -5 -12  -5  114.70    2.54
  -5 -12  -4    0.72    0.68
  -5 -12  -3   82.78    2.14
  -5 -12  -3   81.68    2.00
  -5 -12  -2    6.32    0.84
  -5 -12  -2    5.48    1.02
  -5 -12  -1    7.25    0.87
  -5 -12  -1    7.02    1.09
  -5 -12   0    0.36    0.71
  -5 -12   0    0.60    0.99
  -5 -12   1   32.89    1.35
  -5 -12   1   33.98    1.45
  -5 -12   2    1.04    0.71
  -5 -12   4   25.38    1.12
  -5 -12   4   27.15    1.24
  -5 -12   5   20.64    0.98
  -5 -12   5   21.32    1.10
  -5 -12   6   10.85    0.73
  -5 -12   6   11.44    0.88
  -5 -12   7    9.19    0.60
  -5 -12   7    9.57    0.70
  -5 -12   8    2.67    0.36
  -5 -11 -15   11.44    0.59
  -5 -11  -5   37.23    1.36
  -5 -11  -4   74.69    1.99
  -5 -11  -3    0.76    0.69
  -5 -11  -3    0.73    0.90
  -5 -11  -2   31.27    1.34
  -5 -11  -2   32.21    1.41
  -5 -11  -1    1.67    0.76
  -5 -11  -1    1.26    1.05
  -5 -11   0  322.27    5.52
  -5 -11   0  316.75    5.31
  -5 -11   1   31.04    1.39
  -5 -11   1   34.29    1.52
  -5 -11   2  208.83    3.92
  -5 -11   2  197.18    3.72
  -5 -11   3   12.58    0.99
  -5 -11   3   14.35    1.19
  -5 -11   4    4.69    0.79
  -5 -11   5    2.70    0.97
  -5 -11   6   47.39    1.42
  -5 -11   6   51.80    1.49
  -5 -11   7    5.84    0.66
  -5 -11   7    6.17    0.80
  -5 -11   8   14.97    0.70
  -5 -11   8   16.21    0.77
  -5 -11   9    1.80    0.33
  -5 -10 -15    7.22    0.59
  -5 -10  -6   60.77    1.66
  -5 -10  -5   68.61    1.81
  -5 -10  -4   23.70    1.12
  -5 -10  -3   57.83    1.72
  -5 -10  -3   57.26    1.66
  -5 -10  -2    0.29    0.69
  -5 -10  -2   -0.03    0.98
  -5 -10  -1  201.81    3.82
  -5 -10  -1  192.96    3.64
  -5 -10   0   14.48    1.06
  -5 -10   0   11.41    1.24
  -5 -10   1  361.80    6.10
  -5 -10   1  379.87    6.24
  -5 -10   1  370.35    6.00
  -5 -10   2    1.70    0.73
  -5 -10   3  217.32    4.08
  -5 -10   4    0.92    0.68
  -5 -10   4    1.24    1.04
  -5 -10   6   18.08    1.01
  -5 -10   6   24.60    1.21
  -5 -10   7   42.70    1.35
  -5 -10   7   47.67    1.41
  -5 -10   8    4.74    0.61
  -5 -10   8    7.46    0.81
  -5 -10   9   37.30    1.02
  -5 -10  10    5.94    0.36
  -5  -9 -15   42.07    1.04
  -5  -9  -4  187.66    3.48
  -5  -9  -3    1.12    0.62
  -5  -9  -3    1.18    0.86
  -5  -9  -2   61.94    1.76
  -5  -9  -2   61.23    1.74
  -5  -9  -1   40.33    1.46
  -5  -9   0  174.81    3.42
  -5  -9   0  164.91    3.28
  -5  -9   1   69.91    1.92
  -5  -9   2  215.42    4.03
  -5  -9   3   49.95    1.65
  -5  -9   4   33.88    1.40
  -5  -9   5   27.21    1.25
  -5  -9   6   78.73    2.04
  -5  -9   7    4.70    0.74
  -5  -9   7    6.46    0.99
  -5  -9   8   74.41    1.85
  -5  -9   8   83.55    1.82
  -5  -9   9   21.38    0.91
  -5  -9   9   27.44    0.97
  -5  -9  10   21.88    0.75
  -5  -9  10   18.79    0.72
  -5  -8  -3  107.76    2.32
  -5  -8  -2    4.54    0.69
  -5  -8  -1  173.04    3.33
  -5  -8   1    9.97    0.84
  -5  -8   2    3.00    0.74
  -5  -8   3   39.60    1.47
  -5  -8   4    5.15    0.91
  -5  -8   5   79.21    2.14
  -5  -8   6   20.57    1.17
  -5  -8   8    3.39    0.72
  -5  -8   9   66.87    1.70
  -5  -8   9   72.91    1.65
  -5  -8  10   12.74    0.72
  -5  -8  11   30.68    0.81
  -5  -7  -2  103.37    2.22
  -5  -7   1   24.98    1.11
  -5  -7   2  131.58    2.81
  -5  -7   3    3.47    0.77
  -5  -7   4  148.25    3.16
  -5  -7   5   14.58    1.08
  -5  -7   6   13.00    1.03
  -5  -7   7    4.13    0.82
  -5  -7   9    0.60    0.64
  -5  -7  10   35.04    1.15
  -5  -7  10   34.59    1.09
  -5  -7  11    1.09    0.44
  -5  -7  12   13.52    0.43
  -5  -7  12   11.74    0.42
  -5  -6   2   10.02    0.84
  -5  -6   3   42.33    1.50
  -5  -6   4   19.13    1.13
  -5  -6   5  201.61    3.95
  -5  -6   6    7.45    0.95
  -5  -6   7   51.30    1.74
  -5  -6   8    8.52    0.92
  -5  -6   9   76.51    1.99
  -5  -6  10   18.22    0.97
  -5  -6  11   29.45    1.01
  -5  -6  12    7.21    0.46
  -5  -5   2  207.27    3.78
  -5  -5   3   14.14    0.97
  -5  -5   4   69.53    1.97
  -5  -5   5   15.69    1.10
  -5  -5   6  245.83    4.59
  -5  -5   7    1.03    0.79
  -5  -5   8   64.84    1.95
  -5  -5  10   50.27    1.54
  -5  -5  11    2.08    0.60
  -5  -5  12   16.43    0.69
  -5  -4   2   85.80    2.04
  -5  -4   3  188.56    3.58
  -5  -4   4   69.91    1.96
  -5  -4   5  184.64    3.70
  -5  -4   6    3.71    0.85
  -5  -4   7  103.17    2.60
  -5  -4   8   10.31    1.01
  -5  -4   9  136.88    2.99
  -5  -4  10   17.10    1.04
  -5  -4  11   36.09    1.24
  -5  -4  12    7.43    0.61
  -5  -4  13    8.74    0.42
  -5  -3   3  147.08    2.97
  -5  -3   4   68.79    1.92
  -5  -3   5   31.82    1.40
  -5  -3   6  270.67    4.95
  -5  -3   7   36.03    1.54
  -5  -3   8   45.95    1.71
  -5  -3   9   16.11    1.13
  -5  -3  11    3.87    0.71
  -5  -3  12   45.92    1.27
  -5  -3  13    0.38    0.33
  -5  -2   3   13.33    0.89
  -5  -2   4   33.91    1.34
  -5  -2   5   21.10    1.16
  -5  -2   6    3.08    0.85
  -5  -2   7  122.83    2.91
  -5  -2   8   59.61    1.94
  -5  -2   9   68.70    2.06
  -5  -2  11   22.89    1.11
  -5  -2  12    5.77    0.66
  -5  -2  13   21.80    0.75
  -5  -1   3  279.20    4.76
  -5  -1   4  149.05    3.08
  -5  -1   5   35.69    1.44
  -5  -1   6  154.69    3.33
  -5  -1   7   36.01    1.54
  -5  -1   8  124.52    2.96
  -5  -1   9    0.35    0.79
  -5  -1  11    0.60    0.67
  -5  -1  12   21.89    0.97
  -5  -1  13   22.28    0.79
  -5   0   3  117.71    2.52
  -5   0   4   33.35    1.31
  -5   0   5  155.08    3.25
  -5   0   6   51.90    1.78
  -5   0   7   35.47    1.55
  -5   0   8   48.57    1.78
  -5   0   9   81.35    2.27
  -5   0  11   35.93    1.35
  -5   0  12    5.80    0.70
  -5   0  13   59.55    1.35
  -5   1   5  138.52    3.03
  -5   1   6  158.62    3.39
  -5   1   7   83.27    2.34
  -5   1   8   69.26    2.14
  -5   1   9    1.74    0.85
  -5   1  11    2.27    0.74
  -5   1  12   99.48    2.15
  -5   1  13    1.88    0.46
  -5   2   4   81.82    2.02
  -5   2   5   76.49    2.02
  -5   2   7   13.72    1.14
  -5   2   8   38.95    1.61
  -5   2   9   37.21    1.55
  -5   2  11   55.71    1.68
  -5   2  12   14.55    0.86
  -5   2  13   26.98    0.87
  -5   3   4    3.77    0.68
  -5   3   5  241.94    4.41
  -5   3   6   38.65    1.48
  -5   3   8   81.74    2.31
  -5   3   9    0.88    0.79
  -5   3  11   46.13    1.51
  -5   3  12   38.35    1.22
  -5   3  13    5.52    0.50
  -5   4   5   41.70    1.51
  -5   4   6   76.18    2.12
  -5   4   7   14.42    1.05
  -5   4   9    6.50    0.91
  -5   4  10   25.47    1.23
  -5   4  11   29.77    1.21
  -5   4  12   19.01    0.88
  -5   4  13   18.42    0.66
  -5   5 -10  100.94    3.24
  -5   5  -9  223.50    5.31
  -5   5   5   44.13    1.57
  -5   5   6   12.41    1.00
  -5   5   7  116.62    2.73
  -5   5   8   27.15    1.28
  -5   5  10   60.13    1.77
  -5   5  11   23.96    1.07
  -5   5  12   38.67    1.13
  -5   5  13    3.07    0.36
  -5   6  -9   86.73    3.08
  -5   6   5    4.27    0.77
  -5   6   6   13.54    1.01
  -5   6   7    0.80    0.68
  -5   6  10   35.92    1.33
  -5   6  11   61.43    1.58
  -5   6  12    6.34    0.53
  -5   7   5   32.32    1.34
  -5   7   6    7.34    0.84
  -5   7   7   53.78    1.69
  -5   7  10   35.61    1.25
  -5   7  11    9.64    0.68
  -5   7  12   24.97    0.75
  -5   8   6   52.25    1.64
  -5   8   8   84.66    2.02
  -5   8  10   31.44    1.09
  -5   8  11    8.29    0.58
  -5   9   6    1.24    0.58
  -5   9   7   62.20    1.65
  -5   9   8    0.35    0.52
  -5   9  10    0.68    0.45
  -5   9  11   26.68    0.71
  -5  10   6   44.71    1.31
  -5  10   7    0.19    0.47
  -5  10   8   37.19    1.06
  -5  10   9    1.07    0.46
  -5  10  10   49.70    1.05
  -5  11   5   32.83    1.08
  -5  11   7   31.78    0.90
  -5  11   9    6.93    0.40
  -5  12   4   52.37    1.33
  -5  12   5    7.87    0.65
  -5  12   6   18.77    0.67
  -5  13   4   28.92    0.87
  -5  13   5    7.37    0.46
  -5  14   2    4.48    0.48
  -4 -18  -7    8.04    0.39
  -4 -18  -6   49.43    0.98
  -4 -18  -6   43.58    0.94
  -4 -18  -5   16.14    0.56
  -4 -18  -5   14.43    0.56
  -4 -18  -4    4.40    0.41
  -4 -18  -3   20.83    0.66
  -4 -18  -2    5.50    0.43
  -4 -18  -1    0.93    0.32
  -4 -17 -10    0.52    0.25
  -4 -17  -9   60.65    1.17
  -4 -17  -9   50.70    1.06
  -4 -17  -8   13.87    0.64
  -4 -17  -8   12.32    0.59
  -4 -17  -7   52.18    1.22
  -4 -17  -7   49.82    1.20
  -4 -17  -6    8.22    0.55
  -4 -17  -5   51.29    1.20
  -4 -17  -4   16.99    0.77
  -4 -17  -3    8.26    0.65
  -4 -17  -2   13.36    0.73
  -4 -17  -1   10.42    0.69
  -4 -17   0    2.51    0.50
  -4 -17   1   24.01    0.76
  -4 -16 -11    6.78    0.45
  -4 -16 -10   17.53    0.71
  -4 -16 -10   15.39    0.63
  -4 -16  -9   -0.13    0.45
  -4 -16  -9   -0.14    0.48
  -4 -16  -8   29.06    1.01
  -4 -16  -8   29.91    1.01
  -4 -16  -7    4.49    0.55
  -4 -16  -2   30.74    1.13
  -4 -16  -1    3.50    0.64
  -4 -16   0  122.67    2.32
  -4 -16   0  132.39    2.48
  -4 -16   1   11.16    0.76
  -4 -16   1   13.20    0.75
  -4 -16   2   25.75    0.91
  -4 -16   2   32.96    0.98
  -4 -16   3    7.81    0.54
  -4 -16   4   45.99    1.00
  -4 -15 -13   56.41    1.11
  -4 -15 -12    0.97    0.39
  -4 -15 -11   21.82    0.82
  -4 -15 -11   20.54    0.74
  -4 -15 -10    2.09    0.51
  -4 -15 -10    2.49    0.56
  -4 -15  -9   75.35    1.73
  -4 -15  -9   71.44    1.69
  -4 -15   0   48.86    1.50
  -4 -15   1   53.57    1.53
  -4 -15   2   63.54    1.55
  -4 -15   2   71.77    1.71
  -4 -15   3   33.55    1.10
  -4 -15   4   46.99    1.22
  -4 -15   5    4.37    0.47
  -4 -15   6    2.03    0.30
  -4 -14 -14   31.85    0.82
  -4 -14 -13   21.43    0.70
  -4 -14 -12   36.17    0.96
  -4 -14 -12   38.68    1.08
  -4 -14 -11    9.58    0.66
  -4 -14 -11    9.30    0.70
  -4 -14 -10   74.72    1.76
  -4 -14 -10   75.84    1.79
  -4 -14  -9    0.16    0.61
  -4 -14  -4  124.65    2.76
  -4 -14  -3    6.32    0.84
  -4 -14  -2    1.84    0.77
  -4 -14  -1   75.11    2.03
  -4 -14   0   78.15    2.06
  -4 -14   2   86.08    2.05
  -4 -14   3   80.29    1.86
  -4 -14   3   74.77    1.85
  -4 -14   4   21.66    1.10
  -4 -14   4   22.88    0.99
  -4 -14   5   69.26    1.59
  -4 -14   5   67.06    1.58
  -4 -14   6    1.24    0.46
  -4 -14   7   41.24    0.95
  -4 -13 -15   15.99    0.61
  -4 -13 -13   70.17    1.51
  -4 -13 -12    3.57    0.58
  -4 -13 -12    3.68    0.52
  -4 -13 -11   41.51    1.29
  -4 -13 -11   39.79    1.23
  -4 -13 -10   11.86    0.82
  -4 -13  -5   98.50    2.40
  -4 -13  -4   13.83    1.01
  -4 -13  -3  216.51    4.11
  -4 -13  -2    7.27    1.77
  -4 -13  -2    6.19    0.90
  -4 -13  -2    6.34    1.09
  -4 -13  -1    5.53    1.67
  -4 -13  -1    6.85    0.91
  -4 -13  -1    5.07    1.09
  -4 -13   0   79.70    2.11
  -4 -13   0   83.49    2.19
  -4 -13   1   11.03    1.18
  -4 -13   1   11.53    0.99
  -4 -13   2   22.06    1.29
  -4 -13   2   20.61    1.15
  -4 -13   3   20.60    1.10
  -4 -13   4   58.57    1.67
  -4 -13   5    1.88    0.87
  -4 -13   5    2.09    0.66
  -4 -13   6   33.48    1.16
  -4 -13   6   31.93    1.10
  -4 -13   7    3.73    0.67
  -4 -13   7    3.46    0.53
  -4 -13   8   11.27    0.54
  -4 -12 -15   13.57    0.56
  -4 -12 -15   20.12    0.77
  -4 -12 -14   82.51    1.59
  -4 -12 -13   31.47    1.02
  -4 -12 -12   40.24    1.26
  -4 -12 -10  103.96    2.30
  -4 -12 -10   99.75    2.24
  -4 -12  -6  152.31    3.14
  -4 -12  -5    3.26    0.76
  -4 -12  -4  176.59    3.53
  -4 -12  -3    7.61    0.92
  -4 -12  -3    7.33    1.08
  -4 -12  -2   56.25    3.22
  -4 -12  -2   62.06    1.89
  -4 -12  -2   60.32    1.82
  -4 -12  -1   68.99    3.56
  -4 -12  -1   69.87    1.99
  -4 -12  -1   70.38    2.04
  -4 -12   0   49.73    1.74
  -4 -12   0   48.01    1.69
  -4 -12   1   47.99    1.73
  -4 -12   1   47.11    1.68
  -4 -12   2   25.92    1.41
  -4 -12   2   24.56    1.28
  -4 -12   3    1.58    1.06
  -4 -12   3    1.04    0.77
  -4 -12   4   28.52    1.36
  -4 -12   4   26.76    1.25
  -4 -12   6   24.46    1.16
  -4 -12   6   23.63    1.07
  -4 -12   7   26.63    1.08
  -4 -12   7   22.52    0.98
  -4 -12   8   17.18    0.83
  -4 -12   8   17.30    0.78
  -4 -12   9   16.64    0.64
  -4 -11 -16   65.15    1.24
  -4 -11 -15    4.20    0.49
  -4 -11 -15    6.14    0.68
  -4 -11 -14    8.79    0.59
  -4 -11 -13   59.08    1.48
  -4 -11 -11   76.82    1.89
  -4 -11 -10   22.67    1.08
  -4 -11 -10   22.24    1.03
  -4 -11  -6    2.90    0.71
  -4 -11  -5  136.54    2.90
  -4 -11  -4    2.38    0.90
  -4 -11  -4    2.04    0.75
  -4 -11  -3  100.26    3.99
  -4 -11  -3   97.13    2.25
  -4 -11  -3   97.20    2.38
  -4 -11  -2    1.51    1.54
  -4 -11  -2    0.29    0.73
  -4 -11  -2    0.57    1.02
  -4 -11  -1  133.49    2.93
  -4 -11  -1  130.21    2.79
  -4 -11   0   83.34    2.26
  -4 -11   0   87.70    2.24
  -4 -11   1  396.70    6.54
  -4 -11   1  384.49    6.27
  -4 -11   2  190.30    3.82
  -4 -11   2  186.48    3.79
  -4 -11   3   55.82    1.81
  -4 -11   3   52.85    1.80
  -4 -11   4    9.73    0.96
  -4 -11   4    9.76    1.20
  -4 -11   5    4.57    0.83
  -4 -11   5    4.23    1.06
  -4 -11   6   18.48    1.06
  -4 -11   7   52.64    1.58
  -4 -11   7   53.76    1.54
  -4 -11   8   31.52    1.14
  -4 -11   8   30.00    1.14
  -4 -11   9   25.80    0.92
  -4 -11  10   33.13    0.87
  -4 -10 -16    1.86    0.53
  -4 -10 -15   36.73    1.08
  -4 -10 -15   33.35    1.01
  -4 -10 -14    5.86    0.71
  -4 -10 -13   47.98    1.39
  -4 -10 -12   42.16    1.33
  -4 -10 -11  169.87    3.20
  -4 -10 -10   98.20    2.22
  -4 -10  -6  189.67    3.55
  -4 -10  -5    3.98    0.72
  -4 -10  -4  154.98    2.93
  -4 -10  -4  163.50    3.18
  -4 -10  -3    0.62    1.28
  -4 -10  -3    0.30    0.90
  -4 -10  -3    0.56    0.68
  -4 -10  -2   55.82    1.69
  -4 -10  -2   55.81    1.70
  -4 -10  -1    8.25    1.52
  -4 -10  -1   10.85    0.96
  -4 -10  -1    8.73    1.15
  -4 -10   0  366.04    6.10
  -4 -10   0  361.68    5.87
  -4 -10   1    9.83    0.96
  -4 -10   1   12.17    1.26
  -4 -10   2   51.59    1.70
  -4 -10   2   50.71    1.78
  -4 -10   3    7.82    0.93
  -4 -10   4   26.49    1.30
  -4 -10   4   26.42    1.46
  -4 -10   5   17.32    1.13
  -4 -10   5   17.47    1.29
  -4 -10   6  153.01    3.20
  -4 -10   6  154.25    3.04
  -4 -10   7   41.21    1.48
  -4 -10   8   81.76    2.04
  -4 -10   8   85.91    1.93
  -4 -10   9  131.78    2.67
  -4 -10   9  147.19    2.53
  -4 -10  10   10.17    0.68
  -4 -10  11   25.71    0.71
  -4  -9 -16   56.53    1.23
  -4  -9 -16   53.10    1.31
  -4  -9 -15    9.44    0.66
  -4  -9 -15   10.36    0.81
  -4  -9 -14  126.31    2.52
  -4  -9 -11   43.23    1.36
  -4  -9 -10   95.65    2.15
  -4  -9  -6   51.06    1.47
  -4  -9  -5   45.11    1.39
  -4  -9  -4   97.48    2.06
  -4  -9  -4  100.79    2.23
  -4  -9  -3  156.85    2.90
  -4  -9  -3  157.37    3.06
  -4  -9  -2   35.10    1.34
  -4  -9  -2   38.40    1.34
  -4  -9  -1  166.75    3.15
  -4  -9  -1  169.09    3.28
  -4  -9   0   68.84    1.84
  -4  -9   1   94.43    2.30
  -4  -9   2    7.41    0.88
  -4  -9   3  120.02    2.74
  -4  -9   4   26.99    1.33
  -4  -9   5    2.46    0.84
  -4  -9   6    7.50    0.94
  -4  -9   7  189.01    3.72
  -4  -9   8   48.50    1.60
  -4  -9   9   43.58    1.36
  -4  -9   9   44.54    1.43
  -4  -9  10  131.41    2.56
  -4  -9  11    1.69    0.48
  -4  -9  12    6.85    0.36
  -4  -8 -16   12.25    0.82
  -4  -8 -16   12.93    0.70
  -4  -8 -10   68.66    1.71
  -4  -8  -6  233.05    3.93
  -4  -8  -5   37.72    1.20
  -4  -8  -4  146.23    2.78
  -4  -8  -3   56.09    1.51
  -4  -8  -3   63.64    1.61
  -4  -8  -2  344.74    5.54
  -4  -8  -1    1.15    0.55
  -4  -8   0  614.51    9.21
  -4  -8   1   18.43    1.00
  -4  -8   2   19.88    1.09
  -4  -8   3    0.91    0.74
  -4  -8   4   88.72    2.30
  -4  -8   5    3.16    0.87
  -4  -8   6  173.57    3.58
  -4  -8   7    9.46    1.01
  -4  -8   8   72.09    2.02
  -4  -8  10    0.47    0.64
  -4  -8  11   15.22    0.83
  -4  -8  12    2.22    0.45
  -4  -7 -17   21.00    0.89
  -4  -7 -15    0.10    0.63
  -4  -7   1  529.61    8.07
  -4  -7   2    0.41    0.62
  -4  -7   3  403.39    6.54
  -4  -7   4   38.39    1.47
  -4  -7   5   89.94    2.35
  -4  -7   6    6.37    0.96
  -4  -7   7   65.35    2.01
  -4  -7   8    6.79    0.95
  -4  -7   9    6.51    0.89
  -4  -7  11    1.81    0.65
  -4  -7  12    0.78    0.49
  -4  -7  13    0.54    0.30
  -4  -6 -18    6.85    0.43
  -4  -6   2  162.53    3.11
  -4  -6   3   91.44    2.19
  -4  -6   4   64.94    1.86
  -4  -6   5   21.19    1.20
  -4  -6   6  266.26    4.86
  -4  -6   7    4.27    0.96
  -4  -6   8   54.05    1.86
  -4  -6   9   17.42    1.15
  -4  -6  11    6.32    0.80
  -4  -6  12   21.83    0.94
  -4  -6  13    1.48    0.43
  -4  -5   3  430.99    6.78
  -4  -5   4    1.13    0.68
  -4  -5   5  132.45    2.88
  -4  -5   6   18.91    1.18
  -4  -5   7  288.60    5.20
  -4  -5   8   10.02    1.06
  -4  -5   9  136.85    3.09
  -4  -5  10   20.45    1.24
  -4  -5  12    8.41    0.78
  -4  -5  13   57.85    1.38
  -4  -5  14   10.23    0.43
  -4  -4   4   84.37    2.07
  -4  -4   5   11.19    0.92
  -4  -4   6   90.44    2.31
  -4  -4   7    8.75    1.01
  -4  -4   8   51.55    1.81
  -4  -4   9    9.30    1.04
  -4  -4  10  318.15    5.58
  -4  -4  12   56.51    1.62
  -4  -4  13   34.12    1.12
  -4  -4  14   12.99    0.56
  -4  -3   4   13.60    0.88
  -4  -3   5  116.88    2.60
  -4  -3   6   39.21    1.53
  -4  -3   7  632.78    9.84
  -4  -3   8   15.86    1.22
  -4  -3   9   47.74    1.78
  -4  -3  10   12.15    1.11
  -4  -3  11   58.67    1.82
  -4  -3  12    2.82    0.75
  -4  -3  13   91.32    1.99
  -4  -3  14   23.19    0.79
  -4  -2   5   21.30    1.09
  -4  -2   6  251.91    4.55
  -4  -2   7    0.96    0.80
  -4  -2   8  228.32    4.42
  -4  -2   9   17.15    1.22
  -4  -2  10   35.21    1.55
  -4  -2  11   12.49    1.06
  -4  -2  12   90.62    2.21
  -4  -2  13    4.64    0.70
  -4  -2  14   29.58    0.94
  -4  -1   5  391.44    6.32
  -4  -1   6   52.50    1.68
  -4  -1   7  275.28    4.96
  -4  -1   8    0.44    0.83
  -4  -1   9   15.79    1.20
  -4  -1  10   85.81    2.39
  -4  -1  11    7.69    0.97
  -4  -1  13   97.78    2.18
  -4  -1  14    0.83    0.49
  -4  -1  15   15.36    0.49
  -4   0   5   18.63    0.96
  -4   0   7    0.58    0.76
  -4   0   8   35.57    1.52
  -4   0   9    2.26    0.89
  -4   0  10   43.62    1.72
  -4   0  11   12.80    1.10
  -4   0  13   20.54    1.04
  -4   0  14   59.44    1.44
  -4   0  15    4.37    0.36
  -4   1   5  139.33    2.79
  -4   1   6   54.96    1.65
  -4   1   7  222.52    4.16
  -4   1   8   10.60    1.04
  -4   1   9   55.64    1.92
  -4   1  10    9.45    1.07
  -4   1  11  119.34    2.83
  -4   1  13   76.50    1.91
  -4   1  14    1.55    0.54
  -4   1  15    9.86    0.46
  -4   2   5   91.66    2.14
  -4   2   6  286.67    4.97
  -4   2   7    2.86    0.77
  -4   2   8   10.27    0.99
  -4   2  10   87.43    2.41
  -4   2  11   86.42    2.33
  -4   2  13    9.38    0.83
  -4   2  14   59.21    1.45
  -4   2  15    0.74    0.29
  -4   3  -9   88.95    2.85
  -4   3   4   97.78    2.17
  -4   3   5   35.08    1.29
  -4   3   6  196.57    3.76
  -4   3   7  196.30    3.85
  -4   3   8   59.92    1.88
  -4   3   9  112.97    2.74
  -4   3  10    3.89    0.90
  -4   3  11   92.88    2.41
  -4   3  13   54.73    1.56
  -4   3  14    1.95    0.53
  -4   3  15   23.16    0.64
  -4   4 -10    8.02    1.16
  -4   4  -9  109.67    3.35
  -4   4   5  304.96    5.20
  -4   4   6  108.74    2.55
  -4   4   7   30.25    1.36
  -4   4   8   33.40    1.46
  -4   4   9   44.48    1.65
  -4   4  10   57.42    1.84
  -4   4  11   29.33    1.36
  -4   4  12   65.22    1.84
  -4   4  13    9.29    0.80
  -4   4  14   37.62    1.08
  -4   5 -16   12.11    0.53
  -4   5 -11   35.53    1.99
  -4   5 -10   37.35    2.05
  -4   5  -9   69.64    2.71
  -4   5   6   48.50    1.66
  -4   5   7    3.59    0.82
  -4   5   8  107.09    2.66
  -4   5   9   53.22    1.79
  -4   5  10    9.58    0.94
  -4   5  12   12.12    0.93
  -4   5  13   19.41    0.95
  -4   5  14    4.60    0.52
  -4   6 -11  161.06    4.40
  -4   6 -10   56.02    2.51
  -4   6  -9  102.31    3.43
  -4   6   6  108.90    2.40
  -4   6   6  130.69    2.84
  -4   6   7   40.66    1.58
  -4   6   8   44.50    1.65
  -4   6   9   36.15    1.49
  -4   6  10   33.85    1.40
  -4   6  12   52.46    1.56
  -4   6  13    2.41    0.60
  -4   6  14   44.85    1.07
  -4   7 -10  103.76    3.48
  -4   7  -9  247.89    5.91
  -4   7  -8   60.73    2.70
  -4   7   7   11.18    0.93
  -4   7   7   13.47    1.06
  -4   7   8  165.30    3.47
  -4   7   9   45.64    1.62
  -4   7  11   42.72    1.42
  -4   7  12   21.50    1.01
  -4   7  13   64.74    1.50
  -4   7  14    9.56    0.45
  -4   8  -9  122.72    3.88
  -4   8  -8   19.77    1.72
  -4   8   7  112.52    2.52
  -4   8   7  133.73    2.92
  -4   8   8   50.61    1.54
  -4   8   8   60.02    1.84
  -4   8   9   29.33    1.18
  -4   8   9   38.84    1.44
  -4   8  10   48.85    1.55
  -4   8  11    6.82    0.73
  -4   8  12   25.52    1.00
  -4   8  13   26.16    0.85
  -4   9  -8    5.94    1.22
  -4   9  -7   39.51    2.32
  -4   9   7    7.43    0.86
  -4   9   7    8.18    0.88
  -4   9   8  118.17    2.69
  -4   9   9   62.42    1.61
  -4   9  10   26.02    1.00
  -4   9  10   33.25    1.21
  -4   9  11   24.10    0.97
  -4   9  12   20.29    0.83
  -4   9  13   16.90    0.58
  -4  10  -6    2.46    1.08
  -4  10   7   51.86    1.65
  -4  10   8    6.41    0.80
  -4  10   9   16.38    0.92
  -4  10   9   13.03    0.84
  -4  10  10    4.17    0.61
  -4  10  10    3.27    0.58
  -4  10  11   39.93    1.11
  -4  10  12    5.43    0.46
  -4  11   7    6.58    0.73
  -4  11   7    5.71    0.78
  -4  11   8   33.96    1.20
  -4  11   8   27.77    1.09
  -4  11   9   -0.02    0.52
  -4  11   9   -0.01    0.57
  -4  11  10   17.58    0.75
  -4  11  10   12.51    0.64
  -4  11  11    5.89    0.50
  -4  12   6    6.62    0.82
  -4  12   7   61.68    1.58
  -4  12   7   57.48    1.51
  -4  12   8    0.93    0.49
  -4  12   8    0.86    0.60
  -4  12   9   25.38    0.84
  -4  12   9   19.62    0.77
  -4  12  10   17.15    0.61
  -4  13   6   12.99    0.72
  -4  13   6   12.31    0.83
  -4  13   7    0.86    0.44
  -4  13   7    1.22    0.58
  -4  13   8   60.98    1.27
  -4  13   8   52.76    1.22
  -4  13   9    0.55    0.28
  -4  14   5   43.34    1.06
  -4  14   5   45.49    1.23
  -4  14   6   11.31    0.52
  -4  14   6   10.91    0.69
  -4  14   7   12.06    0.46
  -4  14   7   12.93    0.59
  -4  15   3   18.13    0.63
  -4  15   4   32.04    0.95
  -4  15   5   11.25    0.58
  -4  16   2   18.12    0.61
  -3 -18  -8   10.71    0.47
  -3 -18  -8    9.75    0.46
  -3 -18  -7   27.51    0.77
  -3 -18  -7   27.24    0.79
  -3 -18  -6   17.90    0.66
  -3 -18  -6   17.89    0.69
  -3 -18  -5   19.07    0.64
  -3 -18  -5   28.22    0.79
  -3 -18  -4   64.38    1.30
  -3 -18  -3    0.41    0.47
  -3 -18  -2   17.01    0.73
  -3 -18  -1    1.67    0.47
  -3 -18   0   34.23    0.92
  -3 -18   1    2.08    0.38
  -3 -17 -11    0.60    0.25
  -3 -17 -10   45.29    1.02
  -3 -17 -10   42.61    0.98
  -3 -17  -9    0.99    0.44
  -3 -17  -9    0.81    0.44
  -3 -17  -8   38.42    1.07
  -3 -17  -8   37.03    1.09
  -3 -17  -7   34.35    1.09
  -3 -17  -7   35.01    1.07
  -3 -17  -6   22.91    0.80
  -3 -17  -5   43.46    1.16
  -3 -17  -4    9.27    0.72
  -3 -17  -3   35.22    1.12
  -3 -17  -2   32.92    1.10
  -3 -17  -1   78.00    1.72
  -3 -17   0   13.90    0.82
  -3 -17   1  112.17    2.08
  -3 -17   2    0.28    0.49
  -3 -16 -12    2.43    0.37
  -3 -16 -12    1.66    0.29
  -3 -16 -11   84.82    1.65
  -3 -16 -11   81.72    1.62
  -3 -16 -10    1.45    0.53
  -3 -16 -10    1.28    0.50
  -3 -16  -9  141.76    2.64
  -3 -16  -9  143.49    2.66
  -3 -16  -8    4.96    0.68
  -3 -16  -8    4.88    0.68
  -3 -16  -6   59.95    1.45
  -3 -16  -5   13.94    0.84
  -3 -16  -2    0.86    0.68
  -3 -16  -2    1.60    0.64
  -3 -16  -1   28.39    1.16
  -3 -16  -1   33.06    1.21
  -3 -16   0   69.71    1.70
  -3 -16   0   70.63    1.76
  -3 -16   1    7.65    0.79
  -3 -16   1    9.62    0.76
  -3 -16   2   97.22    1.96
  -3 -16   2   98.76    1.92
  -3 -16   3    0.31    0.47
  -3 -16   3    0.47    0.55
  -3 -16   4   18.47    0.70
  -3 -15 -13    0.16    0.48
  -3 -15 -13    0.17    0.27
  -3 -15 -13    0.19    0.36
  -3 -15 -12   36.98    1.05
  -3 -15 -12   36.68    1.00
  -3 -15 -11    0.24    0.51
  -3 -15 -11    0.47    0.54
  -3 -15 -10   56.00    1.49
  -3 -15 -10   53.00    1.47
  -3 -15  -9    0.24    0.63
  -3 -15  -9   -0.43    0.63
  -3 -15  -3   27.88    1.25
  -3 -15  -2   32.23    1.33
  -3 -15  -1   72.31    1.96
  -3 -15   0   26.07    1.19
  -3 -15   2    0.60    0.69
  -3 -15   2    1.01    0.63
  -3 -15   3   41.56    1.29
  -3 -15   3   45.84    1.34
  -3 -15   4    0.40    0.41
  -3 -15   4    0.94    0.54
  -3 -15   4    0.34    0.57
  -3 -15   5   27.13    0.92
  -3 -15   6    0.86    0.38
  -3 -14 -14    4.52    0.43
  -3 -14 -14    5.61    0.58
  -3 -14 -13   25.99    0.84
  -3 -14 -13   28.13    0.92
  -3 -14 -12    4.15    0.57
  -3 -14 -12    3.59    0.61
  -3 -14 -11   70.88    1.74
  -3 -14 -11   71.37    1.76
  -3 -14 -10    2.25    0.66
  -3 -14  -5   59.58    3.33
  -3 -14  -5   54.51    3.18
  -3 -14  -4    4.10    1.48
  -3 -14  -4    3.03    1.59
  -3 -14  -4    2.79    0.81
  -3 -14  -3  239.17    6.93
  -3 -14  -3  253.48    7.03
  -3 -14  -3  245.31    4.53
  -3 -14  -2    3.63    1.45
  -3 -14  -2    6.04    1.79
  -3 -14  -2    4.76    0.87
  -3 -14  -1   14.67    1.99
  -3 -14  -1   12.18    2.06
  -3 -14  -1   12.09    1.03
  -3 -14   0   16.84    2.24
  -3 -14   0   17.29    1.12
  -3 -14   1   83.36    2.17
  -3 -14   1   82.23    2.16
  -3 -14   2   19.24    1.11
  -3 -14   2   19.67    1.27
  -3 -14   3   16.98    1.00
  -3 -14   4   46.80    1.36
  -3 -14   4   43.45    1.33
  -3 -14   5    0.80    0.46
  -3 -14   5    0.78    0.56
  -3 -14   6   57.05    1.42
  -3 -14   7    0.08    0.41
  -3 -13 -15    4.98    0.56
  -3 -13 -15    3.50    0.43
  -3 -13 -14   31.61    0.94
  -3 -13 -14   35.60    1.06
  -3 -13 -13    3.14    0.58
  -3 -13 -13    2.52    0.53
  -3 -13 -12   51.08    1.45
  -3 -13 -12   52.18    1.47
  -3 -13 -10   65.81    1.81
  -3 -13 -10   65.97    1.80
  -3 -13  -5   84.70    3.88
  -3 -13  -5   79.47    2.16
  -3 -13  -5   76.90    3.76
  -3 -13  -4  144.21    5.09
  -3 -13  -4  140.52    3.07
  -3 -13  -4  139.39    5.08
  -3 -13  -3    8.53    1.87
  -3 -13  -3    6.88    1.67
  -3 -13  -3    9.60    1.00
  -3 -13  -2  374.96    9.17
  -3 -13  -2  397.27    9.32
  -3 -13  -2  386.91    6.49
  -3 -13  -1    3.27    1.56
  -3 -13  -1    4.62    1.82
  -3 -13  -1    1.75    1.12
  -3 -13  -1    2.91    0.89
  -3 -13   0   66.58    3.58
  -3 -13   0   72.03    3.82
  -3 -13   0   71.30    2.06
  -3 -13   0   67.51    2.04
  -3 -13   1   74.38    3.83
  -3 -13   1   73.10    2.08
  -3 -13   1   71.28    2.07
  -3 -13   2   32.20    2.71
  -3 -13   2   30.66    1.38
  -3 -13   2   30.37    1.48
  -3 -13   3   49.06    1.65
  -3 -13   3   52.79    1.73
  -3 -13   4   18.83    1.07
  -3 -13   4   18.20    1.20
  -3 -13   5   65.78    1.65
  -3 -13   5   73.38    1.75
  -3 -13   6   -0.20    0.83
  -3 -13   6    0.17    0.58
  -3 -13   7   34.68    1.14
  -3 -13   7   32.47    1.09
  -3 -13   8   -0.07    0.44
  -3 -12 -16   44.94    0.90
  -3 -12 -16   26.22    0.74
  -3 -12 -15   26.61    0.95
  -3 -12 -14    2.07    0.55
  -3 -12 -14    2.07    0.53
  -3 -12 -14    2.01    0.47
  -3 -12 -13  111.06    2.21
  -3 -12 -13  115.14    2.31
  -3 -12 -11   34.65    1.29
  -3 -12 -11   36.20    1.33
  -3 -12 -10   28.78    1.24
  -3 -12 -10   28.53    1.24
  -3 -12  -5  392.86    6.51
  -3 -12  -5  397.90    9.01
  -3 -12  -4   39.12    2.73
  -3 -12  -4   35.75    2.62
  -3 -12  -4   33.61    1.41
  -3 -12  -3  171.15    3.32
  -3 -12  -3  175.67    5.61
  -3 -12  -3  182.28    3.56
  -3 -12  -2  121.07    2.79
  -3 -12  -2  132.06    4.82
  -3 -12  -2  126.93    4.75
  -3 -12  -2  122.75    2.68
  -3 -12  -1   18.34    1.17
  -3 -12  -1   14.96    2.17
  -3 -12  -1   14.43    2.01
  -3 -12  -1   15.95    1.31
  -3 -12   0  465.17    7.56
  -3 -12   0  465.14   10.43
  -3 -12   0  456.64   10.36
  -3 -12   0  472.33    7.34
  -3 -12   1  140.64    2.99
  -3 -12   1  140.53    3.10
  -3 -12   2  148.67    3.05
  -3 -12   2  139.91    3.12
  -3 -12   3   26.35    1.46
  -3 -12   3   27.89    1.35
  -3 -12   4   31.06    1.43
  -3 -12   4   28.05    1.32
  -3 -12   5   13.49    0.87
  -3 -12   5   17.15    1.20
  -3 -12   5   16.51    1.05
  -3 -12   5   12.93    0.86
  -3 -12   6   80.07    2.03
  -3 -12   7    1.38    0.84
  -3 -12   8   20.76    0.92
  -3 -12   8   20.72    0.97
  -3 -12   9    0.97    0.42
  -3 -12   9    0.87    0.47
  -3 -11 -16   36.83    0.96
  -3 -11 -16   26.09    0.85
  -3 -11 -15   54.88    1.35
  -3 -11 -15   43.50    1.23
  -3 -11 -14   25.03    0.92
  -3 -11 -14   27.38    1.05
  -3 -11 -14   27.93    1.02
  -3 -11 -13   11.27    0.78
  -3 -11 -13   10.59    0.86
  -3 -11 -12  243.87    4.18
  -3 -11 -12  242.64    4.20
  -3 -11 -11    4.84    0.75
  -3 -11 -11    3.35    0.74
  -3 -11 -11    4.38    0.78
  -3 -11 -10   83.33    2.09
  -3 -11 -10   82.86    2.09
  -3 -11  -6  171.74    3.39
  -3 -11  -5    0.50    1.33
  -3 -11  -5    1.22    0.72
  -3 -11  -4  165.65    5.17
  -3 -11  -4  168.37    3.34
  -3 -11  -3   38.94    1.46
  -3 -11  -3   38.89    1.44
  -3 -11  -3   40.08    2.70
  -3 -11  -3   36.19    2.53
  -3 -11  -2   83.20    2.10
  -3 -11  -2   90.90    2.23
  -3 -11  -2   87.14    3.84
  -3 -11  -2   82.61    3.69
  -3 -11  -1    9.09    1.67
  -3 -11  -1   11.20    1.17
  -3 -11  -1   11.16    0.98
  -3 -11   0  230.00    6.57
  -3 -11   0  242.85    4.24
  -3 -11   0  238.33    4.39
  -3 -11   1  250.62    6.93
  -3 -11   1  245.44    4.57
  -3 -11   1  257.11    4.44
  -3 -11   2  450.35    7.37
  -3 -11   2  457.78    7.33
  -3 -11   2  445.25    7.07
  -3 -11   3  112.70    2.69
  -3 -11   3  113.15    2.61
  -3 -11   4   57.67    1.87
  -3 -11   4   55.92    1.84
  -3 -11   5   66.97    1.99
  -3 -11   5   69.92    1.93
  -3 -11   6   11.19    1.00
  -3 -11   6   11.79    1.14
  -3 -11   7   26.16    1.24
  -3 -11   8   25.85    1.14
  -3 -11   9   50.64    1.47
  -3 -11   9   50.92    1.40
  -3 -11  10    2.55    0.44
  -3 -11  10    3.12    0.50
  -3 -10 -17   12.99    0.54
  -3 -10 -17    7.75    0.39
  -3 -10 -16   20.70    0.86
  -3 -10 -16   19.56    0.80
  -3 -10 -15   43.79    1.32
  -3 -10 -15   47.83    1.34
  -3 -10 -14   23.93    1.10
  -3 -10 -14   23.63    0.99
  -3 -10 -13   78.01    1.92
  -3 -10 -13   77.54    1.93
  -3 -10 -12  118.81    2.55
  -3 -10 -12  119.18    2.50
  -3 -10 -12  116.80    2.51
  -3 -10 -11   98.96    2.28
  -3 -10 -11   96.02    2.19
  -3 -10 -11   95.89    2.25
  -3 -10 -10   63.24    1.74
  -3 -10 -10   62.03    1.72
  -3 -10  -6   33.62    1.27
  -3 -10  -5  243.49    6.10
  -3 -10  -5  245.84    4.31
  -3 -10  -4   71.36    1.77
  -3 -10  -4   71.04    1.87
  -3 -10  -3  130.86    4.40
  -3 -10  -3  125.33    2.54
  -3 -10  -3  132.25    2.73
  -3 -10  -2   78.16    1.93
  -3 -10  -2   77.16    1.97
  -3 -10  -2   81.35    3.48
  -3 -10  -2   82.31    3.44
  -3 -10  -1  174.57    5.20
  -3 -10  -1  175.18    3.23
  -3 -10  -1  172.43    3.37
  -3 -10   0    2.10    1.27
  -3 -10   0    2.13    1.00
  -3 -10   0    1.34    0.72
  -3 -10   1  237.37    6.46
  -3 -10   1  240.14    4.33
  -3 -10   1  233.86    4.12
  -3 -10   2   12.62    1.01
  -3 -10   2   13.76    1.24
  -3 -10   3   27.71    1.33
  -3 -10   3   25.22    1.42
  -3 -10   4    3.35    0.86
  -3 -10   4    4.88    1.13
  -3 -10   5   33.91    1.46
  -3 -10   5   33.75    1.50
  -3 -10   6   40.31    1.60
  -3 -10   6   44.26    1.60
  -3 -10   7  213.10    4.01
  -3 -10   7  203.15    3.71
  -3 -10   8  156.74    3.20
  -3 -10   9    3.61    0.83
  -3 -10  10   39.59    1.16
  -3 -10  10   41.65    1.31
  -3 -10  11    3.25    0.55
  -3 -10  11    3.20    0.48
  -3  -9 -17   33.74    0.83
  -3  -9 -17   23.11    0.72
  -3  -9 -16   18.19    0.87
  -3  -9 -16   17.55    0.91
  -3  -9 -15   37.00    1.30
  -3  -9 -15   37.87    1.24
  -3  -9 -14   47.72    1.54
  -3  -9 -13   64.38    1.72
  -3  -9 -12  134.07    2.74
  -3  -9 -12  137.22    2.79
  -3  -9 -11  140.48    2.83
  -3  -9 -11  139.44    2.84
  -3  -9 -10   33.11    1.24
  -3  -9 -10   33.20    1.26
  -3  -9  -6  255.22    4.34
  -3  -9  -5    2.70    0.60
  -3  -9  -5    3.22    1.17
  -3  -9  -4  160.35    3.01
  -3  -9  -4  157.31    4.49
  -3  -9  -4  155.65    2.80
  -3  -9  -3    8.24    0.75
  -3  -9  -3    7.34    1.46
  -3  -9  -3    7.91    0.89
  -3  -9  -2  414.57    6.44
  -3  -9  -2  405.34    8.44
  -3  -9  -2  404.94    6.20
  -3  -9  -1  152.98    2.96
  -3  -9  -1  154.94    4.57
  -3  -9  -1  150.03    2.83
  -3  -9   0   69.65    1.79
  -3  -9   0   67.73    3.03
  -3  -9   0   66.27    1.74
  -3  -9   1    0.69    0.63
  -3  -9   1    1.67    1.20
  -3  -9   2  140.66    2.92
  -3  -9   3    3.62    0.78
  -3  -9   4  154.53    3.22
  -3  -9   5   80.70    2.21
  -3  -9   6   45.01    1.66
  -3  -9   7   59.37    1.77
  -3  -9   7   54.86    1.84
  -3  -9   8  133.47    2.77
  -3  -9   8  145.28    3.06
  -3  -9   9   42.38    1.50
  -3  -9  10   13.70    0.79
  -3  -9  10   15.40    0.94
  -3  -9  11   41.73    1.12
  -3  -9  11   44.04    1.31
  -3  -9  12    8.51    0.61
  -3  -8 -18   31.51    0.79
  -3  -8 -17    9.71    0.59
  -3  -8 -17    9.11    0.72
  -3  -8 -16   46.89    1.25
  -3  -8 -16   49.35    1.41
  -3  -8 -15   16.35    0.93
  -3  -8 -15   18.31    1.00
  -3  -8 -14   61.54    1.62
  -3  -8 -13   80.81    1.96
  -3  -8 -12   31.62    1.21
  -3  -8 -11    7.64    0.74
  -3  -8 -11    7.12    0.76
  -3  -8 -10   14.10    0.86
  -3  -8 -10   16.31    0.91
  -3  -8  -6   29.36    1.04
  -3  -8  -2   55.17    2.46
  -3  -8  -1  178.82    4.69
  -3  -8   0  216.06    5.38
  -3  -8   1  101.48    3.62
  -3  -8   1  112.69    2.37
  -3  -8   2   32.42    1.25
  -3  -8   3   23.81    1.15
  -3  -8   4   22.88    1.18
  -3  -8   5  270.50    4.85
  -3  -8   6    7.77    0.98
  -3  -8   7  244.88    4.58
  -3  -8   8  161.73    3.39
  -3  -8   9    1.17    0.90
  -3  -8   9    2.08    0.80
  -3  -8  10    8.41    0.72
  -3  -8  10    9.25    0.91
  -3  -8  10   10.04    0.90
  -3  -8  11   35.06    1.26
  -3  -8  11   32.79    1.05
  -3  -8  12    8.82    0.69
  -3  -8  13    5.37    0.47
  -3  -7 -18    2.39    0.48
  -3  -7 -17   25.72    1.01
  -3  -7 -17   24.27    0.77
  -3  -7 -16    0.67    0.52
  -3  -7 -16    1.07    0.65
  -3  -7 -15  128.40    2.49
  -3  -7 -13  390.79    6.17
  -3  -7 -12  167.84    3.16
  -3  -7 -11   14.63    0.92
  -3  -7 -10  182.81    3.28
  -3  -7 -10  180.57    3.28
  -3  -7  -5   53.61    2.11
  -3  -7  -4   38.36    1.86
  -3  -7  -1    0.88    0.93
  -3  -7   3   10.61    0.84
  -3  -7   4  363.20    5.96
  -3  -7   5   55.10    1.72
  -3  -7   6  490.80    7.85
  -3  -7   7  530.82    8.44
  -3  -7   8   17.41    1.19
  -3  -7   9  120.17    2.80
  -3  -7  10   19.64    0.97
  -3  -7  10   20.89    1.16
  -3  -7  11   43.82    1.26
  -3  -7  12   36.01    1.03
  -3  -7  12   38.19    1.25
  -3  -7  13   22.43    0.86
  -3  -6 -18   68.19    1.34
  -3  -6 -17    2.07    0.43
  -3  -6 -17    2.76    0.73
  -3  -6 -16  160.40    3.05
  -3  -6 -16  180.50    2.91
  -3  -6 -12   76.54    1.84
  -3  -6 -11   29.42    1.09
  -3  -6 -10   54.50    1.46
  -3  -6  -9  251.13    4.10
  -3  -6  -5  206.71    4.21
  -3  -6  -4  381.50    6.74
  -3  -6  -1  361.40    6.73
  -3  -6   0    6.51    1.07
  -3  -6   1  537.00    9.47
  -3  -6   4   25.97    1.13
  -3  -6   5  201.37    3.78
  -3  -6   6  206.95    3.94
  -3  -6   7  124.21    2.84
  -3  -6   8  258.39    4.77
  -3  -6   9   36.77    1.54
  -3  -6  10   58.67    1.64
  -3  -6  10   64.54    1.93
  -3  -6  11   19.08    0.88
  -3  -6  11   21.98    1.16
  -3  -6  12   69.08    1.81
  -3  -6  13    7.38    0.67
  -3  -6  14   66.39    1.36
  -3  -5 -18    0.29    0.50
  -3  -5 -16    4.82    0.61
  -3  -5 -14    9.64    0.88
  -3  -5 -14   10.24    0.86
  -3  -5 -10  195.91    3.35
  -3  -5  -5   98.67    2.35
  -3  -5  -4 1076.21   15.68
  -3  -5  -1    0.65    0.78
  -3  -5   0  512.01    8.58
  -3  -5   5   58.75    1.68
  -3  -5   6  234.51    4.26
  -3  -5   7  139.14    3.02
  -3  -5   8    3.53    0.90
  -3  -5   9   25.76    1.39
  -3  -5  10    3.71    0.93
  -3  -5  10    3.49    0.62
  -3  -5  11   26.97    1.30
  -3  -5  13   25.39    1.06
  -3  -5  14   20.90    0.81
  -3  -4 -18   13.28    0.63
  -3  -4 -14  140.69    2.89
  -3  -4 -13   93.06    2.22
  -3  -4  -4  385.35    6.02
  -3  -4  -2  122.94    2.65
  -3  -4  -1  866.49   12.82
  -3  -4   5  321.08    5.27
  -3  -4   6    2.59    0.71
  -3  -4   7  252.84    4.56
  -3  -4   8   38.05    1.52
  -3  -4   9   17.16    1.23
  -3  -4  10   13.71    1.16
  -3  -4  11  127.49    2.93
  -3  -4  12   49.58    1.64
  -3  -4  13   19.31    1.01
  -3  -4  14   21.25    0.79
  -3  -4  14   22.59    0.90
  -3  -3 -18    1.58    0.46
  -3  -3 -17   66.87    1.49
  -3  -3  -4  126.27    2.11
  -3  -3  -2  298.06    4.69
  -3  -3   6   93.31    2.18
  -3  -3   7    4.80    0.78
  -3  -3   8  551.68    8.68
  -3  -3   9   15.00    1.15
  -3  -3  10  136.43    3.11
  -3  -3  11    0.45    0.83
  -3  -3  12  106.14    2.54
  -3  -3  13    2.93    0.73
  -3  -3  14   54.57    1.43
  -3  -3  14   48.60    1.24
  -3  -3  15   27.93    0.83
  -3  -2 -18   19.52    0.61
  -3  -2 -17    5.48    0.64
  -3  -2   6    1.85    0.63
  -3  -2   7  567.11    8.73
  -3  -2   8   13.58    1.04
  -3  -2   9  141.19    3.14
  -3  -2  10    2.56    0.90
  -3  -2  11   79.12    2.24
  -3  -2  12    4.55    0.87
  -3  -2  14   24.31    1.03
  -3  -2  14   24.67    0.88
  -3  -2  15   13.91    0.67
  -3  -1 -16   12.74    0.82
  -3  -1   7    3.40    0.74
  -3  -1   8  318.60    5.48
  -3  -1   9    3.97    0.91
  -3  -1  10   27.35    1.43
  -3  -1  11  191.04    3.91
  -3  -1  12   22.79    1.26
  -3  -1  13   23.70    0.98
  -3  -1  14   92.50    2.05
  -3  -1  14   82.16    1.75
  -3  -1  15    9.91    0.63
  -3   0   7  232.15    4.11
  -3   0   8   12.92    0.94
  -3   0   9  228.40    4.34
  -3   0  10   -0.12    0.86
  -3   0  11  311.61    5.57
  -3   0  12   75.59    2.17
  -3   0  13  124.02    2.45
  -3   0  14   22.92    1.05
  -3   0  15    8.78    0.65
  -3   1 -18   80.46    1.41
  -3   1   7    9.34    0.80
  -3   1   8   88.16    2.19
  -3   1   9   11.80    0.99
  -3   1  10  316.11    5.61
  -3   1  11    2.90    0.93
  -3   1  12  170.91    3.56
  -3   1  14   66.71    1.76
  -3   1  15    0.10    0.48
  -3   2  -9    2.99    0.81
  -3   2   6   10.46    0.78
  -3   2   7  174.80    3.35
  -3   2   8    6.00    0.80
  -3   2   9   23.14    1.23
  -3   2  10    3.58    0.85
  -3   2  11  197.94    3.99
  -3   2  12    0.57    0.79
  -3   2  14   41.72    1.39
  -3   2  15   14.88    0.77
  -3   3 -17   52.27    1.07
  -3   3 -10   11.22    1.20
  -3   3  -9  434.84    7.94
  -3   3   6   29.02    1.15
  -3   3   7  156.13    2.98
  -3   3   7  129.41    2.54
  -3   3   8   69.75    1.88
  -3   3   8   54.73    1.52
  -3   3   9   53.58    1.72
  -3   3   9   40.42    1.38
  -3   3  10   91.73    2.40
  -3   3  11    5.92    0.91
  -3   3  12   77.01    2.16
  -3   3  14   49.36    1.50
  -3   3  15    1.13    0.51
  -3   4 -16   89.84    1.65
  -3   4 -15   15.76    0.85
  -3   4 -11  145.06    4.10
  -3   4 -10  277.13    6.06
  -3   4  -9    1.79    0.88
  -3   4   6  186.07    3.25
  -3   4   6  163.51    3.00
  -3   4   7   30.77    1.26
  -3   4   7   27.47    1.07
  -3   4   8   62.19    1.81
  -3   4   8   48.94    1.49
  -3   4   9   59.08    1.84
  -3   4   9   51.57    1.57
  -3   4  10   38.74    1.54
  -3   4  10   29.03    1.23
  -3   4  11   85.33    2.29
  -3   4  12   20.61    1.20
  -3   4  14   14.68    0.89
  -3   4  15   17.93    0.79
  -3   5 -12    1.08    0.92
  -3   5 -11    3.18    1.02
  -3   5 -10   45.11    2.26
  -3   5  -9  233.14    5.40
  -3   5  -8  223.87    5.15
  -3   5   6   48.82    1.47
  -3   5   7   35.65    1.33
  -3   5   7   31.94    1.20
  -3   5   8   34.83    1.41
  -3   5   8   29.13    1.22
  -3   5   9   77.64    2.12
  -3   5   9   66.20    1.81
  -3   5  10  140.77    3.04
  -3   5  10  119.71    2.62
  -3   5  11    1.84    0.78
  -3   5  11    1.28    0.75
  -3   5  12  156.09    3.24
  -3   5  13    0.50    0.67
  -3   5  14   43.16    1.34
  -3   5  15   -0.04    0.44
  -3   6 -16   19.02    0.68
  -3   6 -11   32.13    2.02
  -3   6 -10  314.20    6.88
  -3   6  -9   60.05    2.62
  -3   6  -8  177.19    4.60
  -3   6   5   31.72    1.17
  -3   6   6   50.56    1.55
  -3   6   7  266.84    4.61
  -3   6   7  252.99    4.37
  -3   6   8   11.05    0.94
  -3   6   8    9.65    0.94
  -3   6   9  117.77    2.72
  -3   6   9  101.63    2.36
  -3   6  10   11.06    1.00
  -3   6  10    8.47    0.93
  -3   6  11   40.76    1.52
  -3   6  11   32.07    1.29
  -3   6  12   14.91    0.99
  -3   6  12   11.55    0.89
  -3   6  13  118.70    2.41
  -3   6  13   87.85    1.99
  -3   6  14    7.63    0.71
  -3   6  15   54.76    1.25
  -3   7 -15    1.77    0.53
  -3   7 -11   76.03    3.01
  -3   7 -10   17.48    1.63
  -3   7  -9   66.66    2.82
  -3   7  -8  206.14    5.24
  -3   7   5  258.24    4.46
  -3   7   6   22.62    1.12
  -3   7   7   76.16    2.03
  -3   7   8   90.69    2.26
  -3   7   8   78.47    2.04
  -3   7   9   73.95    2.10
  -3   7   9   63.96    1.85
  -3   7  10  128.69    2.85
  -3   7  10  109.54    2.50
  -3   7  11   22.10    1.18
  -3   7  12   73.49    1.79
  -3   7  13   18.79    1.00
  -3   7  13   13.88    0.82
  -3   7  14   43.60    1.25
  -3   7  15    1.89    0.38
  -3   8 -10   73.72    3.02
  -3   8  -9   35.24    2.16
  -3   8  -8  139.76    4.28
  -3   8  -7    1.39    1.10
  -3   8   5   19.61    1.05
  -3   8   6  111.13    2.54
  -3   8   7   59.47    1.80
  -3   8   8  108.56    2.53
  -3   8   8   99.97    2.39
  -3   8   9   39.85    1.57
  -3   8   9   35.96    1.41
  -3   8  10   59.05    1.82
  -3   8  10   50.43    1.62
  -3   8  11   35.23    1.37
  -3   8  11   29.29    1.24
  -3   8  12   13.82    0.89
  -3   8  12   10.78    0.86
  -3   8  13   46.33    1.35
  -3   8  13   33.93    1.09
  -3   8  14   10.40    0.66
  -3   8  15   19.43    0.56
  -3   9  -9   75.57    3.08
  -3   9  -8  115.82    3.86
  -3   9  -7    5.83    1.28
  -3   9   5  316.17    5.36
  -3   9   6    2.46    0.74
  -3   9   7   59.41    1.79
  -3   9   8   74.13    2.01
  -3   9   8   67.53    1.94
  -3   9   9  104.46    2.42
  -3   9   9   94.52    2.30
  -3   9  10   38.44    1.46
  -3   9  11   31.34    1.21
  -3   9  12   36.51    1.25
  -3   9  12   32.07    1.14
  -3   9  13    5.84    0.64
  -3   9  13    4.34    0.57
  -3   9  14   25.37    0.81
  -3  10  -8   59.62    2.74
  -3  10  -7   69.10    3.04
  -3  10  -6    2.78    1.19
  -3  10   5    4.93    0.77
  -3  10   6  496.90    7.84
  -3  10   7    3.48    1.15
  -3  10   7    3.32    0.75
  -3  10   8   51.42    1.63
  -3  10   8   50.42    1.66
  -3  10  10   25.30    1.17
  -3  10  11   21.32    1.02
  -3  10  11   17.94    0.99
  -3  10  12   30.29    1.06
  -3  10  12   25.49    0.99
  -3  10  13   41.95    1.10
  -3  10  13   30.87    0.87
  -3  10  14    8.40    0.41
  -3  11  -6   39.99    2.37
  -3  11  -5    6.24    1.35
  -3  11   5  168.79    3.33
  -3  11   6   20.19    1.08
  -3  11   7   16.35    0.99
  -3  11   9    6.20    0.87
  -3  11  10   31.99    1.21
  -3  11  10   26.43    1.16
  -3  11  11   27.37    1.04
  -3  11  11   23.32    1.00
  -3  11  12    9.36    0.64
  -3  11  12    8.49    0.63
  -3  11  13   13.36    0.57
  -3  12  -4  192.89    5.28
  -3  12   7   17.65    0.95
  -3  12   8    7.45    0.88
  -3  12   8    6.69    0.69
  -3  12   9   64.58    1.69
  -3  12   9   67.48    1.75
  -3  12  10   13.62    0.88
  -3  12  10   15.41    0.84
  -3  12  11   31.17    1.00
  -3  12  11   34.73    1.04
  -3  12  12   29.43    0.78
  -3  12  12   37.73    0.91
  -3  13   6    0.97    0.69
  -3  13   7   21.52    1.12
  -3  13   8    1.45    0.73
  -3  13   9   85.20    1.89
  -3  13   9   94.11    1.97
  -3  13  10    7.07    0.65
  -3  13  10    7.23    0.58
  -3  13  11   35.40    0.91
  -3  13  11   45.91    1.00
  -3  14   5    2.09    0.72
  -3  14   6   45.56    1.24
  -3  14   7    2.72    0.71
  -3  14   7    2.19    0.58
  -3  14   8   53.67    1.42
  -3  14   8   58.77    1.40
  -3  14   9    3.65    0.58
  -3  14   9    4.38    0.48
  -3  14  10   43.23    0.99
  -3  14  10   52.81    1.06
  -3  15   5   56.97    1.35
  -3  15   6   11.58    0.80
  -3  15   6    9.59    0.65
  -3  15   7   32.07    1.03
  -3  15   7   35.85    0.97
  -3  15   8    2.25    0.48
  -3  15   8    2.68    0.37
  -3  16  -1    5.61    0.53
  -3  16   0    7.99    0.58
  -3  16   2   56.13    1.25
  -3  16   3   10.80    0.70
  -3  16   4   12.39    0.65
  -3  16   5   39.68    1.07
  -3  16   5   39.10    0.90
  -3  16   6   34.82    0.91
  -3  16   6   32.94    0.76
  -3  16   7    6.36    0.42
  -3  17   1   31.52    0.80
  -3  17   2   29.01    0.73
  -3  17   3   14.80    0.57
  -2 -19  -4   17.34    0.56
  -2 -19  -4   13.29    0.44
  -2 -19  -3    0.53    0.34
  -2 -18  -9   11.49    0.45
  -2 -18  -9   10.51    0.40
  -2 -18  -8   34.36    0.87
  -2 -18  -8   33.18    0.81
  -2 -18  -7   35.00    0.88
  -2 -18  -7   35.48    0.95
  -2 -18  -7   34.96    0.88
  -2 -18  -6   36.48    1.00
  -2 -18  -6   34.88    0.99
  -2 -18  -6   34.15    0.91
  -2 -18  -5   55.66    1.28
  -2 -18  -5   52.15    1.18
  -2 -18  -4    5.77    0.53
  -2 -18  -3   64.53    1.39
  -2 -18  -2    6.37    0.63
  -2 -18  -1   48.98    1.22
  -2 -18   0    2.34    0.54
  -2 -18   1   55.78    1.24
  -2 -18   2    0.45    0.39
  -2 -17 -11   16.91    0.54
  -2 -17 -11   18.31    0.55
  -2 -17 -10   15.08    0.63
  -2 -17 -10   14.11    0.60
  -2 -17  -9   41.46    1.11
  -2 -17  -9   39.15    1.06
  -2 -17  -8   12.73    0.70
  -2 -17  -8   13.31    0.72
  -2 -17  -8   13.32    0.75
  -2 -17  -7   40.49    1.17
  -2 -17  -7   42.24    1.25
  -2 -17  -6   77.73    1.72
  -2 -17  -5   24.44    0.92
  -2 -17  -4   37.54    1.16
  -2 -17  -3   11.50    0.81
  -2 -17  -2   51.40    1.40
  -2 -17  -1   36.88    1.21
  -2 -17   0   59.14    1.51
  -2 -17   1    0.66    0.65
  -2 -17   2   28.84    0.98
  -2 -17   2   35.12    1.09
  -2 -17   3    0.31    0.53
  -2 -16 -12   53.52    1.14
  -2 -16 -12   55.27    1.16
  -2 -16 -11    2.94    0.51
  -2 -16 -11    3.21    0.52
  -2 -16 -10   63.04    1.52
  -2 -16 -10   61.59    1.49
  -2 -16  -9   33.38    1.16
  -2 -16  -9   33.52    1.14
  -2 -16  -8   99.63    2.18
  -2 -16  -8   97.35    2.10
  -2 -16  -7   13.69    0.86
  -2 -16  -5   38.68    1.25
  -2 -16  -4   36.66    1.26
  -2 -16  -4   35.56    1.21
  -2 -16  -3   39.21    1.33
  -2 -16  -3   37.65    1.25
  -2 -16  -2   31.70    1.24
  -2 -16  -2   26.69    1.08
  -2 -16  -1   61.68    1.67
  -2 -16  -1   58.54    1.54
  -2 -16   0    2.17    0.78
  -2 -16   0    2.11    0.63
  -2 -16   1   52.76    1.52
  -2 -16   1   49.93    1.44
  -2 -16   2    0.48    0.71
  -2 -16   2    0.16    0.51
  -2 -16   3   68.61    1.61
  -2 -16   3   65.64    1.51
  -2 -16   4    7.04    0.60
  -2 -16   4    7.94    0.71
  -2 -15 -14    0.47    0.25
  -2 -15 -13   20.89    0.73
  -2 -15 -13   22.41    0.72
  -2 -15 -13   20.32    0.69
  -2 -15 -12    1.33    0.50
  -2 -15 -12    1.53    0.53
  -2 -15 -12    1.56    0.59
  -2 -15 -11   96.33    2.04
  -2 -15 -11   93.73    2.01
  -2 -15 -10   12.96    0.86
  -2 -15 -10   12.72    0.85
  -2 -15  -9   64.38    1.75
  -2 -15  -9   64.31    1.70
  -2 -15  -2   31.71    1.31
  -2 -15  -2   29.02    1.20
  -2 -15  -1   33.80    1.33
  -2 -15  -1   24.78    1.11
  -2 -15   0  156.21    3.10
  -2 -15   0  154.29    3.06
  -2 -15   1   27.50    1.18
  -2 -15   1   22.35    1.02
  -2 -15   3    0.43    0.72
  -2 -15   3    1.17    0.60
  -2 -15   4   36.90    1.26
  -2 -15   4   35.88    1.17
  -2 -15   4   35.31    1.23
  -2 -15   5    0.67    0.47
  -2 -15   5    0.94    0.50
  -2 -15   6   36.88    1.06
  -2 -14 -15    0.11    0.24
  -2 -14 -14   16.56    0.62
  -2 -14 -14   20.59    0.74
  -2 -14 -13    1.23    0.65
  -2 -14 -13    0.47    0.49
  -2 -14 -13    0.37    0.52
  -2 -14 -12   70.61    1.71
  -2 -14 -12   70.73    1.71
  -2 -14 -11    0.34    0.63
  -2 -14 -11    0.27    0.64
  -2 -14  -9   22.68    1.14
  -2 -14  -9   23.76    1.18
  -2 -14  -7  249.54    6.39
  -2 -14  -6    9.52    2.15
  -2 -14  -6   14.51    2.06
  -2 -14  -5   64.10    3.54
  -2 -14  -5   57.57    3.27
  -2 -14  -4   96.00    4.26
  -2 -14  -4  106.55    4.52
  -2 -14  -4   94.47    3.97
  -2 -14  -3  163.63    5.61
  -2 -14  -3  157.45    3.32
  -2 -14  -3  163.05    5.67
  -2 -14  -3  157.72    5.07
  -2 -14  -2  109.87    2.58
  -2 -14  -2   96.92    4.33
  -2 -14  -2  103.10    4.53
  -2 -14  -2   94.90    4.01
  -2 -14  -1  134.15    2.90
  -2 -14  -1  148.55    3.11
  -2 -14  -1  159.71    5.54
  -2 -14  -1  147.05    5.32
  -2 -14  -1  135.05    4.70
  -2 -14   0   34.77    1.31
  -2 -14   0   37.50    1.46
  -2 -14   0   39.08    2.97
  -2 -14   0   36.80    2.75
  -2 -14   0   38.54    2.81
  -2 -14   1   31.00    1.22
  -2 -14   1   35.50    1.41
  -2 -14   1   32.71    2.64
  -2 -14   1   35.29    2.84
  -2 -14   1   30.54    2.59
  -2 -14   2   25.30    1.20
  -2 -14   2   21.08    1.03
  -2 -14   2   22.24    1.18
  -2 -14   2   25.31    2.53
  -2 -14   3   34.43    1.35
  -2 -14   3   33.98    1.32
  -2 -14   4   15.95    0.94
  -2 -14   5   49.46    1.45
  -2 -14   5   48.44    1.48
  -2 -14   5   50.19    1.44
  -2 -14   6    1.29    0.54
  -2 -14   6    1.78    0.52
  -2 -14   7   45.12    1.22
  -2 -13 -15   48.03    1.04
  -2 -13 -15   57.50    1.28
  -2 -13 -14    0.88    0.46
  -2 -13 -14    0.83    0.52
  -2 -13 -14    0.93    0.69
  -2 -13 -13  168.75    2.98
  -2 -13 -13  173.43    3.00
  -2 -13 -12   14.74    0.91
  -2 -13 -12   15.23    0.94
  -2 -13 -11  122.48    2.41
  -2 -13 -10   26.21    1.23
  -2 -13 -10   26.35    1.20
  -2 -13  -9   73.40    2.00
  -2 -13  -8   48.64    2.90
  -2 -13  -7    5.73    1.69
  -2 -13  -7    6.88    1.98
  -2 -13  -6   11.50    2.08
  -2 -13  -6   14.06    2.07
  -2 -13  -5   20.70    2.36
  -2 -13  -4   13.39    1.05
  -2 -13  -4   14.44    2.16
  -2 -13  -3   72.25    3.79
  -2 -13  -3   69.04    2.02
  -2 -13  -3   67.06    3.61
  -2 -13  -2   78.66    3.93
  -2 -13  -2   71.79    2.07
  -2 -13  -2   80.49    3.88
  -2 -13  -1   12.38    2.15
  -2 -13  -1   12.23    1.97
  -2 -13  -1   13.57    1.07
  -2 -13   0  251.56    7.25
  -2 -13   0  259.24    4.73
  -2 -13   1    2.86    1.19
  -2 -13   1    4.11    1.85
  -2 -13   1    4.25    1.96
  -2 -13   1    3.19    1.54
  -2 -13   1    3.16    0.67
  -2 -13   1    2.58    0.81
  -2 -13   2   91.72    2.31
  -2 -13   2   90.27    4.24
  -2 -13   2   81.41    3.60
  -2 -13   2   83.97    2.12
  -2 -13   2   94.23    2.32
  -2 -13   3    0.72    1.07
  -2 -13   3    0.32    1.63
  -2 -13   3    1.08    0.59
  -2 -13   3    0.12    0.75
  -2 -13   4   44.30    1.52
  -2 -13   4   47.82    1.57
  -2 -13   4   48.08    1.64
  -2 -13   5   33.97    1.31
  -2 -13   5   33.35    1.32
  -2 -13   5   36.49    1.43
  -2 -13   5   37.40    1.34
  -2 -13   6  146.26    2.92
  -2 -13   7    0.77    0.54
  -2 -13   7    0.17    0.52
  -2 -13   8   38.37    1.14
  -2 -12 -16   57.88    1.30
  -2 -12 -16   76.91    1.33
  -2 -12 -15    3.98    0.70
  -2 -12 -15    3.12    0.44
  -2 -12 -15    3.53    0.57
  -2 -12 -14   18.36    0.89
  -2 -12 -14   16.53    0.88
  -2 -12 -14   17.80    0.84
  -2 -12 -13    2.09    0.71
  -2 -12 -13    2.37    0.68
  -2 -12 -13    2.89    0.65
  -2 -12 -12  142.79    2.78
  -2 -12 -11   14.54    1.00
  -2 -12 -11   15.72    1.04
  -2 -12 -10   85.28    2.18
  -2 -12 -10   88.12    2.17
  -2 -12  -9    4.82    0.88
  -2 -12  -8  120.31    4.15
  -2 -12  -8  141.70    4.87
  -2 -12  -7    9.92    1.87
  -2 -12  -6   11.44    1.93
  -2 -12  -5   18.48    1.11
  -2 -12  -5   16.44    2.16
  -2 -12  -4  135.40    2.96
  -2 -12  -4  144.95    5.08
  -2 -12  -3    1.59    0.75
  -2 -12  -3    2.49    1.72
  -2 -12  -2  194.54    5.97
  -2 -12  -2  188.09    5.89
  -2 -12  -2  181.87    3.62
  -2 -12  -1   41.73    1.64
  -2 -12  -1   47.39    3.14
  -2 -12  -1   43.04    2.86
  -2 -12  -1   44.68    1.58
  -2 -12   0   10.72    1.27
  -2 -12   0   10.94    1.88
  -2 -12   0   10.77    2.15
  -2 -12   0    8.37    0.80
  -2 -12   0   10.70    1.00
  -2 -12   1  700.08   10.05
  -2 -12   1  693.64   10.26
  -2 -12   2   86.99    2.24
  -2 -12   2   81.23    3.92
  -2 -12   2   84.50    2.24
  -2 -12   3   90.67    2.31
  -2 -12   3   94.80    2.32
  -2 -12   4   55.11    1.77
  -2 -12   4   53.82    1.73
  -2 -12   5  150.45    2.98
  -2 -12   5  144.55    3.06
  -2 -12   5  148.13    2.91
  -2 -12   6    1.54    0.67
  -2 -12   6    2.09    0.95
  -2 -12   6    2.89    0.71
  -2 -12   6    1.51    0.72
  -2 -12   7  195.37    3.59
  -2 -12   7  194.76    3.59
  -2 -12   8    2.10    0.57
  -2 -12   8    3.33    0.60
  -2 -12   9   49.31    1.33
  -2 -12  10    0.05    0.43
  -2 -11 -17   19.41    0.54
  -2 -11 -16   26.66    0.87
  -2 -11 -16   32.65    0.92
  -2 -11 -15   31.63    1.12
  -2 -11 -15   30.29    0.97
  -2 -11 -14    8.92    0.76
  -2 -11 -14   10.38    0.95
  -2 -11 -14    8.42    0.85
  -2 -11 -14    8.08    0.71
  -2 -11 -13   66.96    1.79
  -2 -11 -12    5.07    0.86
  -2 -11 -12    6.91    0.83
  -2 -11 -12    5.81    0.83
  -2 -11 -11  275.26    4.75
  -2 -11 -11  289.59    4.98
  -2 -11 -11  290.76    4.96
  -2 -11 -10   10.97    0.93
  -2 -11 -10   13.79    1.04
  -2 -11 -10   13.60    1.02
  -2 -11  -8   28.76    2.35
  -2 -11  -7  131.41    4.65
  -2 -11  -6   20.84    2.18
  -2 -11  -5  555.90   10.92
  -2 -11  -5  515.09    8.13
  -2 -11  -4   21.20    2.15
  -2 -11  -4   18.33    1.06
  -2 -11  -3  281.99    7.11
  -2 -11  -3  270.81    4.74
  -2 -11  -2   30.24    1.34
  -2 -11  -2   30.59    2.48
  -2 -11  -2   30.53    1.26
  -2 -11  -1  249.04    4.27
  -2 -11  -1  254.63    6.78
  -2 -11  -1  247.30    6.63
  -2 -11  -1  245.70    4.42
  -2 -11   0   56.59    1.75
  -2 -11   0   57.34    3.10
  -2 -11   0   50.47    1.65
  -2 -11   1  208.99    3.71
  -2 -11   1  200.92    5.99
  -2 -11   1  205.81    3.83
  -2 -11   2  145.95    2.95
  -2 -11   2  138.88    5.02
  -2 -11   2  135.14    2.83
  -2 -11   2  148.82    3.04
  -2 -11   3  106.20    2.47
  -2 -11   3  110.88    2.55
  -2 -11   4  139.14    2.89
  -2 -11   4  136.93    3.07
  -2 -11   5    1.08    1.04
  -2 -11   5    0.81    0.81
  -2 -11   6  216.88    3.79
  -2 -11   6  222.25    4.12
  -2 -11   7    0.67    0.76
  -2 -11   7    0.92    0.92
  -2 -11   7    0.71    0.63
  -2 -11   8   93.61    2.28
  -2 -11   8   91.40    2.14
  -2 -11   9    0.42    0.54
  -2 -11   9    0.30    0.52
  -2 -11  11    0.56    0.42
  -2 -10 -17   20.55    0.70
  -2 -10 -17   28.01    0.76
  -2 -10 -16   12.91    0.55
  -2 -10 -16   14.57    0.82
  -2 -10 -16   15.73    0.79
  -2 -10 -16   17.28    0.86
  -2 -10 -15   12.20    0.94
  -2 -10 -15    9.51    0.66
  -2 -10 -15   10.20    0.88
  -2 -10 -14   84.66    1.98
  -2 -10 -14   90.71    2.11
  -2 -10 -13    1.79    0.66
  -2 -10 -13    1.24    0.70
  -2 -10 -13    0.81    0.82
  -2 -10 -12  160.63    3.20
  -2 -10 -12  160.29    3.16
  -2 -10 -12  158.45    3.20
  -2 -10 -11  163.36    3.25
  -2 -10 -11  159.47    3.14
  -2 -10 -11  160.43    3.25
  -2 -10 -10   89.77    2.22
  -2 -10 -10   89.50    2.21
  -2 -10  -9    3.57    0.78
  -2 -10  -8  203.55    5.57
  -2 -10  -8  190.78    3.41
  -2 -10  -7   31.32    2.31
  -2 -10  -7   26.24    1.03
  -2 -10  -6  527.29   10.46
  -2 -10  -5   11.12    1.70
  -2 -10  -5   12.10    0.87
  -2 -10  -4  503.49    9.92
  -2 -10  -4  483.53    7.53
  -2 -10  -3   58.90    1.61
  -2 -10  -3   60.55    1.66
  -2 -10  -2  230.21    3.96
  -2 -10  -2  242.36    6.22
  -2 -10  -2  243.13    4.17
  -2 -10  -1   52.00    1.58
  -2 -10  -1   55.17    2.80
  -2 -10  -1   53.03    1.57
  -2 -10   0  163.83    3.06
  -2 -10   0  155.25    4.90
  -2 -10   0  164.79    3.17
  -2 -10   1   24.39    1.25
  -2 -10   1   24.63    2.13
  -2 -10   1   21.80    0.95
  -2 -10   1   19.15    1.08
  -2 -10   1   21.31    1.07
  -2 -10   2  185.09    3.38
  -2 -10   2  181.54    5.53
  -2 -10   2  173.92    3.29
  -2 -10   2  188.91    3.57
  -2 -10   3   71.17    1.80
  -2 -10   3   71.16    1.93
  -2 -10   3   69.14    1.96
  -2 -10   4    3.18    0.63
  -2 -10   4    2.80    1.05
  -2 -10   4    2.52    0.81
  -2 -10   5   18.71    1.26
  -2 -10   5   19.43    1.18
  -2 -10   6    2.17    1.01
  -2 -10   6    2.09    0.83
  -2 -10   6    1.70    0.68
  -2 -10   7  165.40    3.42
  -2 -10   7  161.50    3.26
  -2 -10   7  166.04    3.15
  -2 -10   8   46.47    1.59
  -2 -10   8   45.09    1.49
  -2 -10   8   44.66    1.47
  -2 -10   9   96.18    2.30
  -2 -10   9   96.95    2.20
  -2 -10  11   51.17    1.36
  -2 -10  11   47.93    1.36
  -2 -10  12    0.65    0.38
  -2  -9 -17   10.16    0.59
  -2  -9 -17   11.05    0.66
  -2  -9 -16   19.66    0.91
  -2  -9 -16   22.91    0.98
  -2  -9 -16   20.33    1.01
  -2  -9 -15   45.78    1.41
  -2  -9 -15   47.02    1.48
  -2  -9 -14   92.37    2.22
  -2  -9 -13   65.23    1.79
  -2  -9 -13   68.49    1.90
  -2  -9 -12   76.50    2.00
  -2  -9 -12   79.48    2.07
  -2  -9 -12   74.91    1.99
  -2  -9 -11   88.83    2.18
  -2  -9 -11   89.58    2.18
  -2  -9 -10   64.77    1.80
  -2  -9 -10   62.65    1.76
  -2  -9  -8   13.31    1.62
  -2  -9  -7  538.89    9.94
  -2  -9  -7  498.68    7.46
  -2  -9  -6   59.94    1.59
  -2  -9  -6   62.52    2.82
  -2  -9  -6   58.09    1.40
  -2  -9  -5  195.94    3.47
  -2  -9  -5  189.23    5.04
  -2  -9  -4   30.14    1.09
  -2  -9  -4   30.51    2.07
  -2  -9  -3  167.49    4.66
  -2  -9  -3  159.09    2.84
  -2  -9  -2   29.09    1.15
  -2  -9  -1  376.71    5.76
  -2  -9   0  284.97    4.74
  -2  -9   0  284.00    6.64
  -2  -9   0  290.85    4.61
  -2  -9   1   31.64    1.26
  -2  -9   1   30.99    1.05
  -2  -9   1   35.32    1.25
  -2  -9   1   31.74    2.16
  -2  -9   2   55.99    1.62
  -2  -9   2   56.63    1.47
  -2  -9   2   59.15    1.65
  -2  -9   2   59.12    2.90
  -2  -9   3   36.86    1.39
  -2  -9   3   36.07    1.20
  -2  -9   4   39.56    1.45
  -2  -9   4   41.15    1.49
  -2  -9   4   40.70    1.31
  -2  -9   5  111.34    2.47
  -2  -9   5  119.69    2.68
  -2  -9   6   87.88    2.18
  -2  -9   6   86.46    2.14
  -2  -9   6   92.11    2.31
  -2  -9   7    5.34    1.01
  -2  -9   7    5.40    0.89
  -2  -9   8   23.70    1.23
  -2  -9   8   23.37    1.10
  -2  -9   8   22.09    1.21
  -2  -9   9   34.43    1.30
  -2  -9   9   31.19    1.24
  -2  -9   9   35.67    1.39
  -2  -9  10   28.43    1.22
  -2  -9  11   24.57    1.03
  -2  -9  11   25.97    1.09
  -2  -9  12   50.26    1.28
  -2  -9  12   47.87    1.31
  -2  -8 -18   16.54    0.61
  -2  -8 -18    9.54    0.41
  -2  -8 -17   27.09    0.90
  -2  -8 -17   29.36    1.03
  -2  -8 -16   61.53    1.52
  -2  -8 -16   64.43    1.65
  -2  -8 -15   76.72    1.92
  -2  -8 -15   72.85    1.77
  -2  -8 -14  100.55    2.29
  -2  -8 -14   98.64    2.24
  -2  -8 -13    5.03    0.73
  -2  -8 -13    4.96    0.75
  -2  -8 -12   33.28    1.30
  -2  -8 -12   33.73    1.31
  -2  -8 -11    2.91    0.69
  -2  -8 -11    3.00    0.73
  -2  -8 -10   31.89    1.22
  -2  -8 -10   31.98    1.22
  -2  -8  -4  107.16    3.39
  -2  -8  -3    2.19    1.22
  -2  -8   0  190.19    4.85
  -2  -8   1   84.85    3.13
  -2  -8   1   76.95    1.66
  -2  -8   2  439.39    8.79
  -2  -8   2  431.17    6.51
  -2  -8   3  170.50    3.19
  -2  -8   3  163.99    2.97
  -2  -8   4  100.67    2.27
  -2  -8   4   89.95    2.02
  -2  -8   5   42.36    1.48
  -2  -8   6   59.83    1.71
  -2  -8   6   66.91    1.89
  -2  -8   7  133.53    2.79
  -2  -8   7  132.56    2.94
  -2  -8   8   98.91    2.25
  -2  -8   8  102.72    2.51
  -2  -8   9   42.86    1.45
  -2  -8   9   42.31    1.45
  -2  -8   9   42.26    1.57
  -2  -8  10    1.95    0.75
  -2  -8  11   77.18    1.92
  -2  -8  12    1.60    0.52
  -2  -8  12    1.77    0.59
  -2  -8  13   37.27    1.05
  -2  -7 -18   60.86    1.18
  -2  -7 -18   44.85    1.00
  -2  -7 -17   13.00    0.73
  -2  -7 -17   11.94    0.69
  -2  -7 -17   12.48    0.85
  -2  -7 -16   40.69    1.25
  -2  -7 -16   43.51    1.41
  -2  -7 -14   85.74    2.04
  -2  -7 -14   83.45    2.02
  -2  -7 -13   80.23    2.01
  -2  -7 -13   82.11    2.04
  -2  -7 -12  150.80    2.99
  -2  -7 -12  148.32    2.99
  -2  -7 -11  473.38    7.36
  -2  -7 -11  473.59    7.35
  -2  -7 -10    1.06    0.61
  -2  -7 -10    1.22    0.60
  -2  -7  -9  418.70    6.47
  -2  -7  -9  417.79    6.45
  -2  -7  -7  407.77    7.70
  -2  -7  -6    4.13    1.07
  -2  -7  -5  763.57   12.37
  -2  -7  -4  152.70    3.85
  -2  -7  -3   13.58    1.42
  -2  -7   0   15.05    1.41
  -2  -7   2   89.31    1.78
  -2  -7   3    6.44    0.55
  -2  -7   4   21.37    0.88
  -2  -7   4   18.50    0.99
  -2  -7   5  498.64    7.74
  -2  -7   6  299.07    4.98
  -2  -7   6  301.46    5.15
  -2  -7   7    4.22    0.68
  -2  -7   7    6.69    0.88
  -2  -7   8   82.39    2.06
  -2  -7   8   89.00    2.29
  -2  -7   9    5.55    0.90
  -2  -7  10   27.24    1.31
  -2  -7  11   13.88    0.92
  -2  -7  11   15.23    1.02
  -2  -7  12   63.12    1.63
  -2  -7  13   16.37    0.78
  -2  -7  13   15.70    0.81
  -2  -6 -18    1.13    0.54
  -2  -6 -18    0.56    0.33
  -2  -6 -17   31.91    1.14
  -2  -6 -17   31.26    0.96
  -2  -6 -16   10.22    0.84
  -2  -6 -16   10.67    0.80
  -2  -6 -15   74.17    1.97
  -2  -6 -14  104.77    2.30
  -2  -6 -13   71.50    1.83
  -2  -6 -13   72.81    1.88
  -2  -6 -12  217.74    3.88
  -2  -6 -12  212.98    3.87
  -2  -6 -11  153.18    2.98
  -2  -6 -11  156.89    2.98
  -2  -6 -10   63.63    1.65
  -2  -6 -10   62.13    1.63
  -2  -6  -9   30.36    1.05
  -2  -6  -9   32.62    1.07
  -2  -6  -7    2.25    0.94
  -2  -6  -6  137.80    3.44
  -2  -6  -5   43.31    1.85
  -2  -6  -4  610.69    9.90
  -2  -6  -3  381.83    6.80
  -2  -6   0  224.94    4.83
  -2  -6   1   36.01    1.86
  -2  -6   2  808.55   12.84
  -2  -6   2  767.68   10.85
  -2  -6   3   60.11    1.36
  -2  -6   5  290.53    4.84
  -2  -6   6  222.12    3.93
  -2  -6   6  245.58    4.18
  -2  -6   7  105.11    2.27
  -2  -6   7  106.08    2.44
  -2  -6   8  114.25    2.48
  -2  -6   8  120.19    2.70
  -2  -6   9   69.90    1.87
  -2  -6   9   71.98    2.06
  -2  -6  10   64.17    1.94
  -2  -6  11  165.64    3.21
  -2  -6  11  153.41    3.28
  -2  -6  12    7.37    0.72
  -2  -6  12    7.70    0.82
  -2  -6  13   74.66    1.71
  -2  -6  13   66.00    1.72
  -2  -6  14    0.39    0.42
  -2  -5 -18   39.82    1.01
  -2  -5 -18   31.49    0.83
  -2  -5 -17    0.47    0.56
  -2  -5 -17    1.16    0.70
  -2  -5 -17    0.56    0.49
  -2  -5 -16   79.62    1.93
  -2  -5 -16   82.45    1.78
  -2  -5 -15  136.17    2.88
  -2  -5 -14   60.34    1.83
  -2  -5 -14   62.75    1.70
  -2  -5 -13    2.22    0.65
  -2  -5 -12  136.37    2.71
  -2  -5 -12  135.18    2.73
  -2  -5 -11   36.47    1.22
  -2  -5 -11   37.90    1.24
  -2  -5 -10  242.83    4.06
  -2  -5 -10  241.70    4.05
  -2  -5  -6  157.27    3.52
  -2  -5  -5  621.51    9.72
  -2  -5  -4    0.41    0.83
  -2  -5   0   32.03    1.57
  -2  -5   1  289.44    5.58
  -2  -5   2   21.21    1.55
  -2  -5   3 2035.86   27.67
  -2  -5   5  960.29   13.54
  -2  -5   6  391.72    6.10
  -2  -5   6  408.57    6.34
  -2  -5   7   29.90    1.10
  -2  -5   7   37.57    1.35
  -2  -5   8   20.76    0.97
  -2  -5   8   20.62    1.14
  -2  -5   9  182.91    3.65
  -2  -5  10   96.00    2.45
  -2  -5  11  165.60    3.26
  -2  -5  11  163.53    3.41
  -2  -5  12   72.66    1.84
  -2  -5  12   70.36    1.98
  -2  -5  13    4.34    0.63
  -2  -5  14   57.01    1.38
  -2  -5  14   48.31    1.35
  -2  -4 -18    4.88    0.41
  -2  -4 -18    6.99    0.63
  -2  -4 -17  117.89    2.33
  -2  -4 -17  131.75    2.38
  -2  -4 -16    3.64    0.66
  -2  -4 -15  370.58    6.10
  -2  -4 -15  374.52    5.77
  -2  -4 -14   71.04    1.99
  -2  -4 -14   69.02    1.78
  -2  -4 -13  180.78    3.26
  -2  -4 -12  143.55    2.81
  -2  -4 -11   90.15    1.98
  -2  -4 -11   91.08    1.99
  -2  -4 -10   21.99    0.89
  -2  -4  -5 1237.38   17.69
  -2  -4  -4  566.09    8.59
  -2  -4   0  307.07    5.39
  -2  -4   1  102.86    2.65
  -2  -4   5 1190.58   16.52
  -2  -4   6   84.03    1.77
  -2  -4   7  690.46   10.11
  -2  -4   7  704.88   10.37
  -2  -4   8  392.62    6.21
  -2  -4   8  402.06    6.46
  -2  -4   9   25.49    1.25
  -2  -4  10   73.94    2.11
  -2  -4  11   96.22    2.23
  -2  -4  11   89.62    2.39
  -2  -4  12  169.19    3.29
  -2  -4  12  177.38    3.52
  -2  -4  13  184.13    3.38
  -2  -4  14    0.43    0.49
  -2  -4  14    1.11    0.57
  -2  -4  15   17.96    0.77
  -2  -3 -18   87.67    1.65
  -2  -3 -17    4.48    0.57
  -2  -3 -17    5.04    0.76
  -2  -3 -16  188.17    3.42
  -2  -3 -15    6.55    0.81
  -2  -3 -14   59.97    1.60
  -2  -3 -14   59.81    1.80
  -2  -3 -13    2.12    0.81
  -2  -3 -13    2.87    0.76
  -2  -3 -11   39.57    1.21
  -2  -3  -4  285.75    4.53
  -2  -3  -3  474.90    7.06
  -2  -3   0   77.70    1.94
  -2  -3   1   13.97    1.03
  -2  -3   5   25.11    0.79
  -2  -3   6  529.67    7.71
  -2  -3   7   47.56    1.28
  -2  -3   7   48.75    1.46
  -2  -3   8  145.50    2.98
  -2  -3   9  109.51    2.56
  -2  -3  10    1.96    0.62
  -2  -3  10    1.87    0.81
  -2  -3  11   66.61    1.79
  -2  -3  11   71.60    2.08
  -2  -3  12   20.33    1.02
  -2  -3  12   17.73    1.15
  -2  -3  13   38.71    1.31
  -2  -3  13   41.49    1.48
  -2  -3  14   30.13    1.17
  -2  -3  15   40.81    1.17
  -2  -2 -18   19.91    0.75
  -2  -2 -17   63.03    1.46
  -2  -2 -17   54.94    1.36
  -2  -2 -16   11.67    0.93
  -2  -2 -16   13.23    0.82
  -2  -2 -15  146.16    2.96
  -2  -2 -14    1.11    0.71
  -2  -2 -13  155.37    3.16
  -2  -2 -12   66.08    1.79
  -2  -2 -12   58.71    1.54
  -2  -2  -6  174.13    2.80
  -2  -2  -5  422.97    6.02
  -2  -2  -3   41.35    0.94
  -2  -2  -1  271.19    4.18
  -2  -2   0   18.02    0.85
  -2  -2   5   75.46    1.47
  -2  -2   6   25.96    0.84
  -2  -2   8  258.11    4.48
  -2  -2   9    2.66    0.57
  -2  -2   9    1.86    0.74
  -2  -2  10   18.14    0.94
  -2  -2  10   18.28    1.14
  -2  -2  11  110.15    2.68
  -2  -2  12   73.64    1.91
  -2  -2  12   78.22    2.18
  -2  -2  13   39.47    1.33
  -2  -2  13   36.89    1.45
  -2  -2  14   47.65    1.50
  -2  -2  15   81.54    1.78
  -2  -1 -18   92.69    1.61
  -2  -1 -17    7.86    0.73
  -2  -1 -16   42.61    1.29
  -2  -1 -16   42.78    1.32
  -2  -1 -15   26.60    1.13
  -2  -1 -14   63.47    1.78
  -2  -1 -13    6.72    0.78
  -2  -1 -12  148.09    2.96
  -2  -1 -11   15.07    0.88
  -2  -1  -8  459.74    7.20
  -2  -1  -7  402.02    6.25
  -2  -1  -6  379.45    5.78
  -2  -1   8   40.23    1.16
  -2  -1   8   33.75    1.28
  -2  -1   9  213.42    3.76
  -2  -1   9  233.04    4.12
  -2  -1  10    2.32    0.58
  -2  -1  10    2.11    0.78
  -2  -1  11    6.47    0.95
  -2  -1  12  250.37    4.33
  -2  -1  12  235.04    4.53
  -2  -1  13   48.34    1.65
  -2  -1  14   50.80    1.51
  -2  -1  15   70.47    1.62
  -2  -1  15   62.19    1.60
  -2   0 -17   39.41    1.08
  -2   0 -16    0.21    0.68
  -2   0 -15  288.79    4.69
  -2   0 -14   13.60    0.91
  -2   0 -13  219.19    3.95
  -2   0 -12   53.88    1.56
  -2   0 -11  227.40    3.94
  -2   0  -8  181.34    3.60
  -2   0  -7  423.14    6.72
  -2   0   6  376.92    5.54
  -2   0   7    0.60    0.41
  -2   0   8  300.82    4.80
  -2   0   8  321.58    5.13
  -2   0   9    0.95    0.68
  -2   0   9    1.79    0.51
  -2   0   9    1.36    0.65
  -2   0  10  317.73    4.89
  -2   0  10  327.61    5.26
  -2   0  11   60.49    1.91
  -2   0  12  231.10    4.41
  -2   0  13   43.95    1.60
  -2   0  14   86.68    2.04
  -2   0  15   50.59    1.32
  -2   0  15   41.78    1.32
  -2   1 -18   30.58    0.87
  -2   1 -16   30.73    1.05
  -2   1 -14  222.10    3.81
  -2   1 -13    5.38    0.73
  -2   1 -12  212.05    3.78
  -2   1 -11   10.09    0.74
  -2   1  -8  279.71    5.14
  -2   1  -7   30.73    1.29
  -2   1   6    1.96    0.38
  -2   1   7  473.70    6.90
  -2   1   8    4.82    0.67
  -2   1   8    5.65    0.54
  -2   1   8    3.75    0.68
  -2   1   9  167.32    3.20
  -2   1   9  170.73    2.96
  -2   1  10   12.32    0.97
  -2   1  10   10.37    0.93
  -2   1  11  133.60    2.87
  -2   1  11  104.00    2.47
  -2   1  12   45.10    1.67
  -2   1  13  127.32    2.68
  -2   1  13  124.83    2.85
  -2   1  14   15.07    0.87
  -2   1  15   37.04    1.13
  -2   1  15   36.14    1.22
  -2   2 -18   20.61    0.66
  -2   2 -13  266.72    4.38
  -2   2 -11  448.07    8.29
  -2   2 -10   92.97    2.85
  -2   2  -9  660.52   10.80
  -2   2  -7  394.07    6.71
  -2   2   8  510.27    7.51
  -2   2   8  465.26    7.17
  -2   2   9    0.30    0.62
  -2   2   9    0.27    0.69
  -2   2  10  127.90    2.77
  -2   2  10  116.71    2.52
  -2   2  11    2.19    0.76
  -2   2  11    1.32    0.81
  -2   2  12  202.34    3.89
  -2   2  12  203.58    3.61
  -2   2  13   26.24    1.11
  -2   2  13   23.99    1.25
  -2   2  14   39.84    1.27
  -2   2  15   23.50    0.88
  -2   2  15   21.65    0.98
  -2   3 -18    8.90    0.49
  -2   3 -17   71.68    1.48
  -2   3 -11   11.85    1.32
  -2   3 -10  111.32    3.33
  -2   3  -9   83.50    2.70
  -2   3  -8  463.87    8.06
  -2   3   8   51.02    1.50
  -2   3   8   51.05    1.51
  -2   3   9  514.72    7.79
  -2   3   9  476.91    7.43
  -2   3  10    2.93    0.76
  -2   3  10    4.09    0.62
  -2   3  10    3.47    0.84
  -2   3  11  219.96    4.06
  -2   3  11  198.38    3.76
  -2   3  12   46.74    1.66
  -2   3  12   42.97    1.56
  -2   3  13   14.20    0.86
  -2   3  13   13.25    1.02
  -2   3  14    0.73    0.52
  -2   3  15    6.61    0.70
  -2   4 -17  107.21    1.82
  -2   4 -16    7.49    0.75
  -2   4 -12   30.74    1.92
  -2   4 -11   75.30    2.90
  -2   4 -10    1.45    0.94
  -2   4  -9  233.39    5.24
  -2   4  -8  272.08    5.59
  -2   4  -7    9.41    1.04
  -2   4  -1  224.47    3.66
  -2   4   7  122.57    2.36
  -2   4   8  240.04    4.15
  -2   4   8  268.87    4.43
  -2   4   9    4.79    0.76
  -2   4   9    3.73    0.80
  -2   4  10  116.93    2.66
  -2   4  10  108.98    2.44
  -2   4  11    1.54    0.77
  -2   4  11    1.67    0.84
  -2   4  12  111.96    2.60
  -2   4  12   99.26    2.38
  -2   4  13    8.47    0.91
  -2   4  13    6.81    0.92
  -2   4  15    5.53    0.66
  -2   5 -17    3.56    0.51
  -2   5 -16   59.53    1.29
  -2   5 -15    3.66    0.73
  -2   5 -14   57.64    1.56
  -2   5 -12   83.39    3.14
  -2   5 -11    3.01    1.07
  -2   5 -10  128.42    3.92
  -2   5  -9    0.57    0.99
  -2   5  -8  305.01    6.30
  -2   5  -7   42.56    1.95
  -2   5  -1  378.78    5.95
  -2   5   7  101.84    2.24
  -2   5   8    0.77    0.73
  -2   5   8    1.11    0.67
  -2   5   9  142.53    2.88
  -2   5   9  153.93    3.10
  -2   5  10    7.19    0.89
  -2   5  10    6.79    0.93
  -2   5  11  262.17    4.66
  -2   5  11  239.90    4.36
  -2   5  12   86.68    2.26
  -2   5  12   81.60    2.11
  -2   5  13   45.94    1.55
  -2   5  14    0.32    0.63
  -2   5  15   70.20    1.70
  -2   6 -16    1.16    0.40
  -2   6 -16    1.36    0.60
  -2   6 -15    6.67    0.68
  -2   6 -14   62.81    1.53
  -2   6 -12   27.85    1.19
  -2   6 -12   29.28    1.97
  -2   6 -11  241.13    5.87
  -2   6 -10   68.60    2.90
  -2   6 -10   61.44    1.64
  -2   6  -9  539.73    9.72
  -2   6  -9  499.56    7.64
  -2   6  -8    8.73    1.27
  -2   6  -8    7.53    0.69
  -2   6  -7  206.92    4.87
  -2   6  -1  316.26    5.34
  -2   6   0   14.25    0.96
  -2   6   6    9.37    0.78
  -2   6   7  152.64    3.00
  -2   6   8  143.08    2.86
  -2   6   8  150.91    3.03
  -2   6   9   58.00    1.72
  -2   6   9   60.90    1.83
  -2   6  10  140.86    2.95
  -2   6  10  148.27    3.17
  -2   6  10  148.96    3.16
  -2   6  11    0.14    0.74
  -2   6  11    0.59    0.86
  -2   6  12   96.71    2.37
  -2   6  12   86.26    2.20
  -2   6  13    0.21    0.64
  -2   6  14  203.78    3.58
  -2   6  14  178.22    3.36
  -2   6  15    1.53    0.54
  -2   7 -16   14.17    0.59
  -2   7 -15   18.09    0.84
  -2   7 -11   24.54    1.87
  -2   7 -10  438.71    8.89
  -2   7  -9    2.72    1.10
  -2   7  -9    3.57    0.69
  -2   7  -8   29.50    1.97
  -2   7  -8   30.64    1.10
  -2   7  -7   60.34    2.56
  -2   7  -7   56.42    1.46
  -2   7   0  841.21   12.86
  -2   7   1  174.23    3.88
  -2   7   7  159.59    2.93
  -2   7   7  180.74    3.33
  -2   7   8   53.09    1.67
  -2   7   8   50.98    1.60
  -2   7   9  114.42    2.63
  -2   7   9  106.86    2.47
  -2   7  10   10.00    0.99
  -2   7  10    9.54    1.03
  -2   7  11  127.67    2.86
  -2   7  11  117.15    2.66
  -2   7  12    8.11    0.89
  -2   7  12    7.79    0.97
  -2   7  13   72.66    1.89
  -2   7  14    7.08    0.74
  -2   7  14    6.27    0.83
  -2   7  15   54.93    1.38
  -2   8 -15    7.71    0.58
  -2   8 -14   22.54    0.91
  -2   8 -13   16.34    0.95
  -2   8 -11   39.47    2.27
  -2   8 -10  163.68    4.78
  -2   8  -9  185.04    5.10
  -2   8  -8   76.48    3.09
  -2   8  -8   68.12    1.71
  -2   8  -7  182.17    4.82
  -2   8  -7  171.39    3.13
  -2   8  -6   10.09    1.39
  -2   8  -6    9.72    0.72
  -2   8  -5  276.06    4.44
  -2   8   7   46.20    1.56
  -2   8   8  151.64    3.04
  -2   8   8  145.79    2.93
  -2   8   9  102.46    2.44
  -2   8   9  106.42    2.55
  -2   8  10  142.09    3.07
  -2   8  10  158.87    3.25
  -2   8  11    7.09    0.89
  -2   8  11    6.18    0.98
  -2   8  12   87.11    2.22
  -2   8  13    6.61    0.76
  -2   8  13    6.63    0.89
  -2   8  14   37.15    1.22
  -2   8  14   33.93    1.16
  -2   8  15    1.65    0.46
  -2   9 -14   33.66    0.89
  -2   9 -13   37.25    1.09
  -2   9 -12   21.44    0.99
  -2   9 -10  127.34    2.52
  -2   9 -10  129.94    4.12
  -2   9  -9   41.38    1.39
  -2   9  -9   48.02    2.54
  -2   9  -8  192.81    5.24
  -2   9  -7   79.85    1.88
  -2   9  -7   85.31    3.31
  -2   9  -6   70.54    1.73
  -2   9  -6   73.60    3.01
  -2   9  -5   11.59    0.79
  -2   9  -4  190.43    3.36
  -2   9  -3    6.41    0.67
  -2   9  -3    7.03    0.67
  -2   9  -2  140.08    2.61
  -2   9  -2  131.37    2.56
  -2   9  -1   -0.06    0.53
  -2   9   0  245.00    4.07
  -2   9   0  239.70    4.04
  -2   9   1    5.61    0.67
  -2   9   2   41.48    2.02
  -2   9   2   41.24    1.29
  -2   9   3    6.31    1.08
  -2   9   3    6.93    0.75
  -2   9   7    5.15    0.83
  -2   9   8   28.58    1.21
  -2   9   8   33.10    1.39
  -2   9   9   66.18    1.96
  -2   9   9   67.67    1.98
  -2   9  10  149.52    3.12
  -2   9  10  152.14    3.20
  -2   9  11  110.62    2.58
  -2   9  11  103.91    2.46
  -2   9  12   43.51    1.50
  -2   9  13   72.35    1.80
  -2   9  13   67.05    1.74
  -2   9  14    0.85    0.50
  -2   9  14    0.37    0.64
  -2  10 -13   26.96    0.78
  -2  10 -12   19.95    0.83
  -2  10  -9   74.65    3.11
  -2  10  -8   36.52    2.26
  -2  10  -7  296.16    6.88
  -2  10  -6    3.81    0.67
  -2  10  -6    5.09    1.30
  -2  10  -5  190.53    3.45
  -2  10  -5  187.00    5.14
  -2  10  -4    4.53    0.69
  -2  10  -3  136.98    2.69
  -2  10  -3  132.42    2.67
  -2  10  -2    8.18    0.76
  -2  10  -2    7.00    0.74
  -2  10  -1  162.67    3.05
  -2  10  -1  158.48    3.03
  -2  10   0   17.56    0.96
  -2  10   0   19.07    0.97
  -2  10   1  296.18    4.91
  -2  10   2   30.27    1.20
  -2  10   3   98.73    3.46
  -2  10   3  107.36    2.37
  -2  10   4   46.02    2.42
  -2  10   5   99.26    3.65
  -2  10   6   65.41    3.06
  -2  10   7  170.33    3.46
  -2  10   8   39.14    1.41
  -2  10   8   45.12    1.60
  -2  10   9   18.69    1.13
  -2  10   9   16.75    1.02
  -2  10   9   19.46    1.24
  -2  10  10    8.74    1.03
  -2  10  10   10.01    0.92
  -2  10  11   24.86    1.19
  -2  10  12   20.48    1.03
  -2  10  12   19.46    1.10
  -2  10  13   11.60    0.78
  -2  10  13   10.24    0.87
  -2  10  14   57.37    1.33
  -2  10  14   48.09    1.27
  -2  11  -7    1.87    1.13
  -2  11  -6   14.87    1.68
  -2  11  -5   14.46    0.91
  -2  11  -5   13.11    1.57
  -2  11  -4  161.98    3.08
  -2  11  -4  151.09    4.61
  -2  11  -3   16.00    0.95
  -2  11  -3   16.38    0.95
  -2  11  -2   76.96    1.96
  -2  11  -2   81.64    1.97
  -2  11  -1   27.51    1.18
  -2  11  -1   27.26    1.17
  -2  11   0  168.52    3.25
  -2  11   1    0.43    0.69
  -2  11   2   80.04    2.04
  -2  11   3    0.25    0.72
  -2  11   4  158.12    4.71
  -2  11   5    9.72    1.45
  -2  11   6  156.38    4.88
  -2  11   7    8.10    1.42
  -2  11   7    6.66    0.90
  -2  11   8   24.72    2.08
  -2  11   8   22.14    1.22
  -2  11   8   21.96    1.14
  -2  11   8   24.40    1.35
  -2  11   9   61.68    1.81
  -2  11   9   63.42    1.88
  -2  11  11   73.53    1.92
  -2  11  11   72.59    1.91
  -2  11  12   11.34    0.81
  -2  11  12   10.44    0.89
  -2  11  13   11.55    0.71
  -2  11  13   12.22    0.82
  -2  11  14   10.12    0.54
  -2  11  14    7.78    0.58
  -2  12  -6  103.36    3.64
  -2  12  -5    8.63    1.37
  -2  12  -4    0.86    0.64
  -2  12  -4    1.22    1.03
  -2  12  -3  146.88    2.91
  -2  12  -3  133.69    4.26
  -2  12  -2    2.48    0.72
  -2  12  -2    3.43    0.73
  -2  12  -2    0.86    1.03
  -2  12  -1   60.12    1.70
  -2  12  -1   57.50    1.70
  -2  12   0   20.09    1.09
  -2  12   1  166.98    3.30
  -2  12   2    7.23    0.89
  -2  12   5  103.15    3.80
  -2  12   6   10.85    1.50
  -2  12   7   93.13    2.19
  -2  12   7   86.03    3.54
  -2  12   7   92.90    2.32
  -2  12   8   11.13    0.93
  -2  12   8   11.69    1.09
  -2  12   9   39.52    1.33
  -2  12  10  122.21    2.57
  -2  12  10  124.73    2.63
  -2  12  11   21.94    1.10
  -2  12  11   21.86    1.02
  -2  12  12   26.46    1.07
  -2  12  12   28.93    1.02
  -2  12  13   40.29    1.11
  -2  12  13   47.53    1.13
  -2  13  -3    4.17    1.13
  -2  13  -3    4.57    0.74
  -2  13  -2   91.10    3.34
  -2  13  -2   99.68    2.26
  -2  13  -1   17.46    1.55
  -2  13  -1   19.72    1.08
  -2  13   0   90.27    3.23
  -2  13   0  107.63    2.40
  -2  13   1    9.25    0.90
  -2  13   2   96.94    2.33
  -2  13   8   40.44    1.35
  -2  13   8   42.97    1.51
  -2  13   9   10.51    0.80
  -2  13   9    8.84    0.83
  -2  13   9   10.54    0.97
  -2  13  10   96.38    2.05
  -2  13  10   97.47    2.15
  -2  13  11   25.23    0.97
  -2  13  11   23.73    1.02
  -2  13  12   55.12    1.27
  -2  13  12   49.36    1.25
  -2  13  13    2.42    0.29
  -2  13  13    2.76    0.30
  -2  14  -1   75.14    1.88
  -2  14   0   10.97    0.88
  -2  14   1   11.27    0.89
  -2  14   6   11.85    0.97
  -2  14   6   10.80    0.85
  -2  14   7   16.90    0.93
  -2  14   7   18.54    1.03
  -2  14   7   18.78    1.12
  -2  14   8   14.40    0.83
  -2  14   8   14.69    0.90
  -2  14   8   16.48    1.03
  -2  14   9   46.36    1.27
  -2  14   9   49.55    1.44
  -2  14  10    3.25    0.55
  -2  14  10    4.10    0.69
  -2  14  11   20.84    0.75
  -2  14  11   17.44    0.81
  -2  14  12    5.81    0.36
  -2  14  12    3.76    0.40
  -2  15  -4   50.21    1.21
  -2  15  -3   18.25    0.84
  -2  15   5    1.36    0.58
  -2  15   6   47.50    1.39
  -2  15   6   42.94    1.28
  -2  15   7    0.85    0.50
  -2  15   7    1.59    0.69
  -2  15   7    1.80    0.75
  -2  15   8   21.83    0.82
  -2  15   8   23.14    1.02
  -2  15   8   21.58    0.89
  -2  15   9    7.59    0.58
  -2  15   9    6.42    0.68
  -2  15  10   49.53    1.11
  -2  15  10   42.66    1.11
  -2  15  11    0.25    0.21
  -2  16  -2    0.95    0.51
  -2  16  -1    4.86    0.60
  -2  16   0   15.89    0.79
  -2  16   1   20.79    0.89
  -2  16   2   25.96    0.97
  -2  16   3   85.04    1.78
  -2  16   4   18.18    0.81
  -2  16   4   13.61    0.69
  -2  16   5   32.99    1.08
  -2  16   5   32.51    0.97
  -2  16   6    4.35    0.46
  -2  16   6    5.42    0.66
  -2  16   6    4.38    0.69
  -2  16   7   45.91    1.02
  -2  16   7   46.59    1.13
  -2  16   8    0.21    0.49
  -2  16   9   14.30    0.60
  -2  16   9   19.17    0.58
  -2  17   1    6.39    0.56
  -2  17   3   13.75    0.75
  -2  17   4   17.30    0.76
  -2  17   4   17.62    0.79
  -2  17   5    3.55    0.50
  -2  17   5    3.54    0.53
  -2  17   6   16.60    0.66
  -2  17   6   18.82    0.64
  -2  17   7    0.11    0.30
  -2  17   7    0.19    0.22
  -2  18   1    6.12    0.40
  -2  18   2    8.99    0.44
  -1 -19  -4   -0.09    0.35
  -1 -19  -3   60.07    1.14
  -1 -19  -2    6.61    0.45
  -1 -18  -8   17.11    0.58
  -1 -18  -7    0.35    0.38
  -1 -18  -7    0.39    0.42
  -1 -18  -6   21.86    0.76
  -1 -18  -6   22.33    0.82
  -1 -18  -5    1.66    0.62
  -1 -18  -5    1.70    0.45
  -1 -18  -4   33.00    0.90
  -1 -18  -4   40.74    1.04
  -1 -18  -3    0.44    0.50
  -1 -18  -3   -0.20    0.66
  -1 -18  -2   82.52    1.74
  -1 -18  -2  100.20    1.84
  -1 -18  -1    1.59    0.57
  -1 -18  -1    1.78    0.62
  -1 -18   0   39.61    1.11
  -1 -18   0   40.99    1.06
  -1 -18   1   13.34    0.70
  -1 -18   2   42.70    1.06
  -1 -18   3    8.35    0.49
  -1 -17 -11    2.22    0.27
  -1 -17 -10   34.26    0.89
  -1 -17 -10   32.83    0.82
  -1 -17  -9   16.92    0.74
  -1 -17  -9   16.83    0.66
  -1 -17  -8   33.68    0.98
  -1 -17  -8   34.43    1.05
  -1 -17  -8   31.75    0.90
  -1 -17  -7   15.15    0.73
  -1 -17  -7   15.63    0.81
  -1 -17  -7   15.27    0.85
  -1 -17  -6   13.92    0.81
  -1 -17  -6   14.07    0.73
  -1 -17  -5   64.36    1.48
  -1 -17  -5   59.76    1.52
  -1 -17  -4   10.49    0.72
  -1 -17  -4    9.90    0.74
  -1 -17  -3   43.85    1.29
  -1 -17  -3   43.18    1.30
  -1 -17  -2    0.44    0.49
  -1 -17  -2    0.40    0.68
  -1 -17  -1   42.37    1.25
  -1 -17  -1   46.88    1.38
  -1 -17   0    1.33    0.48
  -1 -17   0    1.77    0.71
  -1 -17   1   79.77    1.68
  -1 -17   1   78.11    1.75
  -1 -17   2    2.81    0.69
  -1 -17   2    1.99    0.44
  -1 -17   3   25.49    0.91
  -1 -17   3   20.96    0.74
  -1 -17   4    0.85    0.36
  -1 -17   4    1.80    0.52
  -1 -16 -12    2.50    0.36
  -1 -16 -12    2.51    0.37
  -1 -16 -11   60.33    1.33
  -1 -16 -11   63.63    1.39
  -1 -16 -10    3.79    0.56
  -1 -16 -10    4.25    0.61
  -1 -16  -9   46.13    1.29
  -1 -16  -9   48.35    1.37
  -1 -16  -8   19.70    0.92
  -1 -16  -8   21.07    1.00
  -1 -16  -8   19.79    0.92
  -1 -16  -7   68.77    1.77
  -1 -16  -7   66.94    1.66
  -1 -16  -6   26.99    1.07
  -1 -16  -5    8.47    0.75
  -1 -16  -4   33.24    1.21
  -1 -16  -3    9.93    0.83
  -1 -16  -3   11.16    0.91
  -1 -16  -2  110.65    2.42
  -1 -16  -2  107.89    2.36
  -1 -16  -1    1.07    0.60
  -1 -16  -1    0.37    0.77
  -1 -16   0   48.43    1.46
  -1 -16   0   46.92    1.52
  -1 -16   1    1.47    0.58
  -1 -16   1    1.23    0.79
  -1 -16   2   70.80    1.74
  -1 -16   2   75.55    1.86
  -1 -16   3    0.65    0.74
  -1 -16   4   50.02    1.43
  -1 -16   4   57.58    1.48
  -1 -16   5    5.13    0.56
  -1 -16   5    5.48    0.65
  -1 -15 -13    3.63    0.42
  -1 -15 -12   44.66    1.17
  -1 -15 -12   44.33    1.19
  -1 -15 -11   22.49    0.94
  -1 -15 -11   24.28    0.99
  -1 -15 -10   41.46    1.30
  -1 -15 -10   42.36    1.35
  -1 -15  -9   28.81    1.14
  -1 -15  -9   29.93    1.21
  -1 -15  -4   36.36    1.34
  -1 -15  -3  179.68    5.89
  -1 -15  -3  168.40    5.29
  -1 -15  -2    4.32    0.87
  -1 -15  -2    5.41    2.13
  -1 -15  -2    4.44    1.79
  -1 -15  -1   37.26    1.45
  -1 -15  -1   39.62    1.44
  -1 -15  -1   39.01    1.41
  -1 -15   0    2.59    0.71
  -1 -15   0    2.25    0.87
  -1 -15   0    2.32    0.68
  -1 -15   1   87.34    2.12
  -1 -15   1   89.40    2.19
  -1 -15   1   89.27    2.17
  -1 -15   2    0.27    0.59
  -1 -15   3   53.09    1.55
  -1 -15   4    0.78    0.76
  -1 -15   5   55.95    1.52
  -1 -15   5   50.68    1.50
  -1 -15   6    4.49    0.60
  -1 -15   7   46.33    1.21
  -1 -14 -14    0.46    0.36
  -1 -14 -14    0.16    0.40
  -1 -14 -13   44.42    1.20
  -1 -14 -13   45.92    1.14
  -1 -14 -13   43.27    1.20
  -1 -14 -12   12.38    0.81
  -1 -14 -12   14.15    0.83
  -1 -14 -12   12.90    0.82
  -1 -14 -11   44.90    1.38
  -1 -14 -11   48.91    1.46
  -1 -14 -10    2.30    0.65
  -1 -14  -9  179.89    3.43
  -1 -14  -9  180.96    3.51
  -1 -14  -8   45.47    1.51
  -1 -14  -8   43.67    1.58
  -1 -14  -7   63.82    3.41
  -1 -14  -7   71.15    3.69
  -1 -14  -6  105.76    4.31
  -1 -14  -6  112.27    4.68
  -1 -14  -5    4.58    1.79
  -1 -14  -5    3.28    2.14
  -1 -14  -5    2.46    0.74
  -1 -14  -4   75.98    3.95
  -1 -14  -4   71.10    3.69
  -1 -14  -3  167.89    5.69
  -1 -14  -3  185.59    5.53
  -1 -14  -3  181.11    6.02
  -1 -14  -2   48.03    1.60
  -1 -14  -2   53.62    3.26
  -1 -14  -2   55.73    3.48
  -1 -14  -2   52.06    3.35
  -1 -14  -2   51.36    1.68
  -1 -14  -1   30.07    1.36
  -1 -14  -1   31.19    2.67
  -1 -14  -1   38.66    3.01
  -1 -14  -1   32.66    2.86
  -1 -14  -1   34.94    1.40
  -1 -14   0   50.21    1.71
  -1 -14   0   52.10    1.69
  -1 -14   0   55.42    3.27
  -1 -14   0   55.03    3.29
  -1 -14   0   56.62    3.50
  -1 -14   0   55.92    1.72
  -1 -14   1   33.01    1.42
  -1 -14   1   33.56    1.35
  -1 -14   1   33.93    2.86
  -1 -14   1   36.31    2.78
  -1 -14   1   35.04    2.84
  -1 -14   1   35.99    1.37
  -1 -14   2   12.86    1.08
  -1 -14   2   12.29    0.94
  -1 -14   2   12.94    2.23
  -1 -14   2   14.15    2.15
  -1 -14   2   12.72    0.92
  -1 -14   3    7.84    0.98
  -1 -14   3    8.64    0.82
  -1 -14   3    6.95    1.79
  -1 -14   3    8.54    0.81
  -1 -14   4  150.99    2.97
  -1 -14   4  143.81    2.94
  -1 -14   5    0.61    0.66
  -1 -14   6  118.45    2.38
  -1 -14   6  112.01    2.47
  -1 -14   7   15.89    0.85
  -1 -14   8   34.04    1.06
  -1 -13 -15    1.70    0.34
  -1 -13 -15    1.58    0.40
  -1 -13 -14   51.45    1.24
  -1 -13 -14   46.11    1.22
  -1 -13 -13   14.74    0.86
  -1 -13 -13   15.35    0.92
  -1 -13 -13   12.65    0.81
  -1 -13 -13   14.61    0.85
  -1 -13 -12  200.52    3.61
  -1 -13 -12  210.43    3.47
  -1 -13 -12  203.68    3.66
  -1 -13 -11    0.52    0.72
  -1 -13 -10  165.19    3.20
  -1 -13 -10  166.90    3.28
  -1 -13  -9   77.08    2.03
  -1 -13  -9   81.02    2.13
  -1 -13  -8   84.66    2.10
  -1 -13  -8   68.24    1.80
  -1 -13  -7   56.32    3.37
  -1 -13  -7   52.67    3.13
  -1 -13  -6  235.76    6.99
  -1 -13  -6  223.33    6.22
  -1 -13  -5   76.08    3.96
  -1 -13  -5   75.95    3.71
  -1 -13  -4  364.23    9.02
  -1 -13  -4  353.21    8.13
  -1 -13  -3  218.36    4.15
  -1 -13  -3  224.16    6.18
  -1 -13  -2    2.85    0.79
  -1 -13  -2    1.27    1.48
  -1 -13  -2    2.90    1.87
  -1 -13  -2    1.34    2.13
  -1 -13  -1   86.58    4.06
  -1 -13  -1   85.79    2.22
  -1 -13  -1   80.32    3.83
  -1 -13  -1   91.48    4.25
  -1 -13   0   43.34    1.54
  -1 -13   0   43.47    3.02
  -1 -13   0   47.50    3.21
  -1 -13   0   41.97    3.04
  -1 -13   1  371.88    6.22
  -1 -13   1  374.16    8.34
  -1 -13   1  392.49    9.42
  -1 -13   1  375.10    9.21
  -1 -13   2    0.28    0.69
  -1 -13   2    0.53    0.65
  -1 -13   2   -0.82    1.62
  -1 -13   2    1.41    1.44
  -1 -13   2   -1.08    2.00
  -1 -13   2    0.68    0.88
  -1 -13   3   44.08    1.50
  -1 -13   3   40.48    1.48
  -1 -13   3   40.94    2.87
  -1 -13   3   42.82    3.07
  -1 -13   3   46.29    1.61
  -1 -13   4    0.57    0.66
  -1 -13   4    0.01    0.64
  -1 -13   4    0.68    1.56
  -1 -13   4    0.27    0.86
  -1 -13   5  109.12    2.42
  -1 -13   5  100.96    2.31
  -1 -13   5   97.89    4.28
  -1 -13   6    2.80    0.60
  -1 -13   6    3.78    0.76
  -1 -13   7   79.67    1.99
  -1 -13   8    8.22    0.73
  -1 -13   9   31.94    1.07
  -1 -13  10    4.08    0.49
  -1 -12 -16   12.53    0.53
  -1 -12 -16   16.11    0.58
  -1 -12 -15   22.53    0.79
  -1 -12 -15   22.46    0.89
  -1 -12 -14   13.44    0.82
  -1 -12 -14   13.73    0.92
  -1 -12 -14   12.14    0.83
  -1 -12 -14   13.07    0.79
  -1 -12 -13  106.06    2.30
  -1 -12 -13  110.23    2.25
  -1 -12 -13  104.31    2.30
  -1 -12 -12   46.38    1.52
  -1 -12 -11  303.16    5.11
  -1 -12 -11  300.08    5.04
  -1 -12 -10  118.07    2.68
  -1 -12 -10  116.32    2.62
  -1 -12  -9   51.32    1.66
  -1 -12  -9   51.18    1.71
  -1 -12  -8  103.84    3.93
  -1 -12  -8   93.77    2.17
  -1 -12  -7   78.83    3.58
  -1 -12  -7   92.15    4.15
  -1 -12  -6   31.01    2.72
  -1 -12  -6   26.28    2.55
  -1 -12  -5  348.46    7.78
  -1 -12  -5  356.30    8.74
  -1 -12  -4  214.53    4.03
  -1 -12  -4  216.23    5.76
  -1 -12  -4  222.25    6.51
  -1 -12  -3   65.74    1.86
  -1 -12  -3   70.18    3.63
  -1 -12  -3   62.47    3.32
  -1 -12  -2   67.74    1.89
  -1 -12  -2   74.01    3.74
  -1 -12  -1  127.69    4.88
  -1 -12  -1  126.77    2.73
  -1 -12  -1  118.76    4.61
  -1 -12   0  241.99    4.41
  -1 -12   0  246.27    6.23
  -1 -12   0  260.27    7.18
  -1 -12   0  251.53    6.96
  -1 -12   1    1.94    1.97
  -1 -12   1    1.78    1.56
  -1 -12   1    0.56    1.77
  -1 -12   1    1.04    0.66
  -1 -12   1    1.63    0.73
  -1 -12   2  397.86    6.25
  -1 -12   2  393.74    9.36
  -1 -12   2  384.69    9.25
  -1 -12   2  395.42    8.36
  -1 -12   2  372.13    6.32
  -1 -12   2  386.03    6.35
  -1 -12   3  204.69    3.75
  -1 -12   3  196.73    5.60
  -1 -12   3  194.59    6.25
  -1 -12   3  202.21    3.82
  -1 -12   4   87.78    2.17
  -1 -12   4   80.40    2.10
  -1 -12   4   83.68    2.15
  -1 -12   4   85.80    2.19
  -1 -12   5   10.73    1.12
  -1 -12   5   11.63    0.91
  -1 -12   5   10.12    0.90
  -1 -12   5   11.10    1.03
  -1 -12   6  165.98    3.11
  -1 -12   6  157.34    3.30
  -1 -12   6  151.68    3.12
  -1 -12   6  172.16    3.20
  -1 -12   7    7.75    0.83
  -1 -12   7    5.82    0.69
  -1 -12   7    6.51    0.80
  -1 -12   8  110.72    2.45
  -1 -12   9   26.97    1.10
  -1 -12  10   46.41    1.31
  -1 -12  11   11.95    0.64
  -1 -11 -16   16.16    0.60
  -1 -11 -16   19.12    0.75
  -1 -11 -15   17.77    0.80
  -1 -11 -15   17.93    0.92
  -1 -11 -15   18.89    0.92
  -1 -11 -14   96.11    2.12
  -1 -11 -14   97.99    2.10
  -1 -11 -14   98.24    2.15
  -1 -11 -13    0.17    0.81
  -1 -11 -12  192.92    3.63
  -1 -11 -12  194.18    3.72
  -1 -11 -12  192.95    3.68
  -1 -11 -11    0.07    0.86
  -1 -11 -11    0.69    0.79
  -1 -11 -11    0.44    0.79
  -1 -11 -10  218.00    3.97
  -1 -11 -10  222.26    4.18
  -1 -11 -10  222.27    4.12
  -1 -11  -9  351.17    5.86
  -1 -11  -9  350.68    5.93
  -1 -11  -8    7.89    1.94
  -1 -11  -8    7.29    0.86
  -1 -11  -7   10.41    1.96
  -1 -11  -7   12.09    2.00
  -1 -11  -7    9.10    0.85
  -1 -11  -6   46.93    2.78
  -1 -11  -6   41.46    1.32
  -1 -11  -5   11.30    1.95
  -1 -11  -4  144.90    4.96
  -1 -11  -4  145.68    2.96
  -1 -11  -3  321.25    7.67
  -1 -11  -3  295.93    5.06
  -1 -11  -2   43.89    2.87
  -1 -11  -2   43.97    1.45
  -1 -11  -1  192.63    5.81
  -1 -11  -1  189.36    3.55
  -1 -11   0  126.08    2.67
  -1 -11   0  128.00    4.68
  -1 -11   0  125.71    4.54
  -1 -11   0  129.76    2.70
  -1 -11   1   23.18    1.28
  -1 -11   1   24.25    2.23
  -1 -11   1   22.08    1.09
  -1 -11   2  274.34    4.58
  -1 -11   2  263.81    7.14
  -1 -11   2  252.24    6.25
  -1 -11   2  257.54    4.62
  -1 -11   2  279.15    4.70
  -1 -11   3   63.44    1.83
  -1 -11   3   61.72    3.39
  -1 -11   3   59.62    3.07
  -1 -11   3   61.04    1.75
  -1 -11   3   59.47    1.74
  -1 -11   4   53.68    1.69
  -1 -11   4   48.43    1.57
  -1 -11   4   52.31    1.60
  -1 -11   5  123.62    2.64
  -1 -11   5  125.65    2.72
  -1 -11   5  127.77    2.73
  -1 -11   6    1.40    0.95
  -1 -11   6    0.76    0.65
  -1 -11   6    0.81    0.78
  -1 -11   7  171.76    3.41
  -1 -11   7  170.34    3.12
  -1 -11   7  162.01    3.20
  -1 -11   8    1.54    0.59
  -1 -11   8    1.73    0.69
  -1 -11   8    2.06    0.83
  -1 -11   9   93.47    2.22
  -1 -11  10    5.20    0.67
  -1 -11  11   39.92    1.20
  -1 -11  12    4.00    0.46
  -1 -10 -17   27.30    0.71
  -1 -10 -17   34.36    0.86
  -1 -10 -16   12.09    0.61
  -1 -10 -16   11.32    0.77
  -1 -10 -16   12.89    0.75
  -1 -10 -15   64.49    1.60
  -1 -10 -15   68.92    1.74
  -1 -10 -15   67.12    1.75
  -1 -10 -14    3.81    0.69
  -1 -10 -14    3.42    0.87
  -1 -10 -14    4.56    0.93
  -1 -10 -13   62.58    1.80
  -1 -10 -13   63.43    1.78
  -1 -10 -13   66.78    1.89
  -1 -10 -13   64.54    1.81
  -1 -10 -12    4.23    0.94
  -1 -10 -12    3.16    0.82
  -1 -10 -12    4.01    0.83
  -1 -10 -11  298.28    5.03
  -1 -10 -11  289.05    5.13
  -1 -10 -11  293.77    5.10
  -1 -10 -10   96.66    2.39
  -1 -10 -10   95.86    2.35
  -1 -10  -9    7.13    0.91
  -1 -10  -9    7.26    0.88
  -1 -10  -9    7.97    0.90
  -1 -10  -8   21.94    2.10
  -1 -10  -8   21.36    1.08
  -1 -10  -7   41.17    2.47
  -1 -10  -7   47.69    2.86
  -1 -10  -7   44.26    1.36
  -1 -10  -6    2.37    1.50
  -1 -10  -6    1.45    0.66
  -1 -10  -5  311.37    5.06
  -1 -10  -5  326.05    7.45
  -1 -10  -4  102.02    2.21
  -1 -10  -4   94.65    1.94
  -1 -10  -3  292.54    4.86
  -1 -10  -3  295.02    7.04
  -1 -10  -2  311.42    5.09
  -1 -10  -2  309.11    7.26
  -1 -10  -1   14.99    1.04
  -1 -10  -1   15.26    0.86
  -1 -10  -1   15.82    1.96
  -1 -10   0   88.27    3.55
  -1 -10   0   87.97    2.02
  -1 -10   0   91.21    2.06
  -1 -10   1   94.09    2.12
  -1 -10   1   88.86    2.07
  -1 -10   1   94.29    3.73
  -1 -10   2  139.88    2.74
  -1 -10   2  133.01    2.75
  -1 -10   2  138.74    2.76
  -1 -10   2  139.39    4.68
  -1 -10   3  514.89    7.82
  -1 -10   3  535.28    8.15
  -1 -10   3  512.24    7.98
  -1 -10   3  515.77   10.77
  -1 -10   4  228.78    3.96
  -1 -10   4  233.76    4.22
  -1 -10   4  226.32    4.09
  -1 -10   5    4.19    0.82
  -1 -10   5    5.78    0.76
  -1 -10   5    5.84    0.85
  -1 -10   5    5.90    1.03
  -1 -10   6  163.18    3.32
  -1 -10   6  161.45    3.05
  -1 -10   7   22.36    1.09
  -1 -10   7   23.45    1.18
  -1 -10   7   25.06    1.23
  -1 -10   8  201.09    3.87
  -1 -10   8  201.34    3.57
  -1 -10   8  204.84    3.89
  -1 -10   9   23.86    1.14
  -1 -10   9   21.80    1.12
  -1 -10  10  167.82    3.29
  -1 -10  11   17.43    0.93
  -1 -10  12   47.81    1.28
  -1  -9 -17    2.50    0.39
  -1  -9 -17    2.63    0.55
  -1  -9 -17    1.55    0.27
  -1  -9 -17    2.58    0.46
  -1  -9 -17    3.04    0.52
  -1  -9 -16   26.33    1.05
  -1  -9 -16   27.19    1.04
  -1  -9 -16   28.76    1.06
  -1  -9 -15   23.56    0.98
  -1  -9 -15   26.32    1.17
  -1  -9 -15   26.15    1.20
  -1  -9 -15   24.92    1.15
  -1  -9 -14  102.89    2.40
  -1  -9 -13   44.11    1.52
  -1  -9 -13   44.99    1.63
  -1  -9 -13   42.10    1.49
  -1  -9 -12  132.28    2.86
  -1  -9 -12  134.54    2.90
  -1  -9 -12  132.50    2.89
  -1  -9 -11   10.74    0.99
  -1  -9 -11   10.97    0.96
  -1  -9 -10   63.17    1.82
  -1  -9 -10   63.07    1.84
  -1  -9 -10   65.02    1.86
  -1  -9  -9    8.58    0.94
  -1  -9  -9    9.59    0.87
  -1  -9  -9    8.75    0.86
  -1  -9  -8   19.04    1.03
  -1  -9  -7   13.53    1.79
  -1  -9  -7   10.88    0.85
  -1  -9  -6  347.54    7.51
  -1  -9  -6  320.61    5.06
  -1  -9  -5    9.46    1.60
  -1  -9  -5    8.58    0.72
  -1  -9  -5    7.69    0.71
  -1  -9  -4  371.85    7.50
  -1  -9  -4  325.14    5.02
  -1  -9  -3   22.27    1.93
  -1  -9  -3   16.45    0.73
  -1  -9  -2  544.72   10.24
  -1  -9  -1  326.93    7.15
  -1  -9   0  177.45    3.03
  -1  -9   0  188.91    3.18
  -1  -9   1  376.27    7.99
  -1  -9   1  378.69    5.80
  -1  -9   2    9.41    0.95
  -1  -9   2    9.33    1.50
  -1  -9   2    9.41    0.71
  -1  -9   3  491.73    7.46
  -1  -9   3  483.15   10.04
  -1  -9   3  496.74    7.61
  -1  -9   4   13.99    1.06
  -1  -9   4   11.76    1.68
  -1  -9   4   13.60    0.85
  -1  -9   5  226.03    4.07
  -1  -9   5  219.66    3.87
  -1  -9   6   28.01    1.26
  -1  -9   6   25.88    1.09
  -1  -9   7  168.83    3.18
  -1  -9   7  179.60    3.55
  -1  -9   7  176.12    3.25
  -1  -9   8    2.98    0.72
  -1  -9   8    2.94    0.89
  -1  -9   8    2.18    0.76
  -1  -9   9   32.15    1.32
  -1  -9   9   31.14    1.33
  -1  -9  10    0.24    0.64
  -1  -9  10    0.62    0.63
  -1  -9  11   58.79    1.68
  -1  -9  12    7.79    0.70
  -1  -9  13   74.82    1.64
  -1  -8 -18   46.09    0.88
  -1  -8 -18   36.38    0.84
  -1  -8 -17   11.30    0.66
  -1  -8 -17   11.62    0.71
  -1  -8 -17   10.40    0.55
  -1  -8 -17   11.63    0.72
  -1  -8 -17    9.78    0.71
  -1  -8 -16    9.22    0.64
  -1  -8 -16    9.92    0.87
  -1  -8 -16    9.32    0.79
  -1  -8 -16   11.63    0.89
  -1  -8 -15   73.75    1.83
  -1  -8 -15   76.94    1.93
  -1  -8 -14   45.28    1.48
  -1  -8 -14   48.57    1.59
  -1  -8 -14   48.44    1.54
  -1  -8 -13  215.31    4.07
  -1  -8 -13  216.62    4.06
  -1  -8 -12   36.91    1.44
  -1  -8 -12   41.15    1.58
  -1  -8 -12   37.52    1.42
  -1  -8 -11  239.66    4.30
  -1  -8 -11  236.44    4.32
  -1  -8 -10   10.35    0.90
  -1  -8 -10   11.30    0.91
  -1  -8  -9  105.48    2.33
  -1  -8  -9  109.91    2.39
  -1  -8  -7 1100.60   17.89
  -1  -8  -6  134.13    2.45
  -1  -8  -5  417.18    6.17
  -1  -8  -4   60.23    1.33
  -1  -8  -3  140.81    3.88
  -1  -8  -3  118.73    2.09
  -1  -8  -2  177.76    4.58
  -1  -8  -1  210.95    3.31
  -1  -8   0  301.79    4.55
  -1  -8   1    8.34    0.54
  -1  -8   1    7.65    1.26
  -1  -8   2   49.70    2.45
  -1  -8   3   46.84    1.35
  -1  -8   3   44.43    1.29
  -1  -8   3   45.59    2.49
  -1  -8   4  162.12    3.01
  -1  -8   4  170.95    3.13
  -1  -8   5    4.69    0.87
  -1  -8   5    5.56    0.74
  -1  -8   5    5.06    0.68
  -1  -8   5    5.58    0.74
  -1  -8   6  197.24    3.49
  -1  -8   6  200.40    3.69
  -1  -8   6  197.43    3.50
  -1  -8   7    2.95    0.73
  -1  -8   7    2.28    0.88
  -1  -8   7    2.14    0.73
  -1  -8   8  163.70    3.09
  -1  -8   8  172.41    3.41
  -1  -8   8  171.54    3.40
  -1  -8   9   25.47    1.22
  -1  -8   9   31.11    1.32
  -1  -8  10  204.31    3.80
  -1  -8  10  181.97    3.64
  -1  -8  11   14.47    0.94
  -1  -8  12   62.53    1.69
  -1  -8  12   57.81    1.58
  -1  -8  13    6.35    0.65
  -1  -8  14   26.25    0.87
  -1  -7 -18   12.75    0.60
  -1  -7 -18   11.30    0.51
  -1  -7 -17   31.24    1.02
  -1  -7 -17   36.26    1.03
  -1  -7 -17   25.76    0.76
  -1  -7 -17   29.41    0.88
  -1  -7 -17   34.38    1.07
  -1  -7 -17   31.97    1.08
  -1  -7 -16   72.07    1.68
  -1  -7 -16   78.45    1.91
  -1  -7 -16   88.70    1.96
  -1  -7 -16   84.16    1.83
  -1  -7 -15   13.64    1.09
  -1  -7 -14   26.64    1.36
  -1  -7 -14   25.88    1.28
  -1  -7 -14   28.44    1.18
  -1  -7 -13   63.77    1.83
  -1  -7 -13   65.79    1.87
  -1  -7 -13   63.55    1.82
  -1  -7 -12   81.81    2.11
  -1  -7 -12   82.81    2.11
  -1  -7 -11   56.65    1.70
  -1  -7 -11   56.27    1.67
  -1  -7 -10  428.78    6.77
  -1  -7 -10  428.62    6.74
  -1  -7  -9    1.31    0.60
  -1  -7  -9    1.19    0.60
  -1  -7  -6  311.02    6.49
  -1  -7  -5    0.77    1.11
  -1  -7  -4  560.69    8.01
  -1  -7  -4  590.62    9.86
  -1  -7  -3   93.82    2.95
  -1  -7  -3   86.14    1.59
  -1  -7  -2  131.88    3.59
  -1  -7   1  354.10    6.86
  -1  -7   1  340.86    5.07
  -1  -7   3  347.92    7.21
  -1  -7   3  339.91    5.27
  -1  -7   4    6.70    0.64
  -1  -7   5  112.14    2.31
  -1  -7   6   47.49    1.41
  -1  -7   6   46.99    1.47
  -1  -7   7  151.49    2.97
  -1  -7   7  156.50    3.10
  -1  -7   7  156.08    3.10
  -1  -7   8   20.56    1.03
  -1  -7   8   20.72    1.10
  -1  -7   8   19.61    1.07
  -1  -7   8   22.55    1.14
  -1  -7   9  292.69    5.11
  -1  -7  10   25.12    1.23
  -1  -7  10   26.23    1.24
  -1  -7  11   36.66    1.42
  -1  -7  11   35.77    1.37
  -1  -7  12    2.84    0.71
  -1  -7  12    2.94    0.68
  -1  -7  13   84.86    1.96
  -1  -7  14    4.12    0.56
  -1  -6 -18   75.73    1.39
  -1  -6 -18   61.93    1.32
  -1  -6 -17    7.85    0.66
  -1  -6 -17    7.46    0.70
  -1  -6 -17    6.80    0.54
  -1  -6 -17    7.30    0.78
  -1  -6 -17    7.51    0.73
  -1  -6 -16   38.76    1.33
  -1  -6 -16   41.07    1.30
  -1  -6 -15   86.11    2.23
  -1  -6 -15   97.25    2.27
  -1  -6 -14  113.58    2.47
  -1  -6 -14  110.68    2.46
  -1  -6 -14  109.89    2.64
  -1  -6 -13  111.82    2.49
  -1  -6 -13  104.77    2.41
  -1  -6 -13  107.29    2.45
  -1  -6 -12   54.29    1.66
  -1  -6 -12   52.59    1.65
  -1  -6 -11  347.06    5.67
  -1  -6 -11  342.75    5.64
  -1  -6 -10   24.48    1.07
  -1  -6 -10   24.48    1.06
  -1  -6  -9  316.00    5.08
  -1  -6  -9  313.69    5.04
  -1  -6  -6    0.48    1.08
  -1  -6  -5  630.07   10.42
  -1  -6  -4   53.75    2.12
  -1  -6  -3  305.69    5.81
  -1  -6   1   36.42    1.84
  -1  -6   2   55.97    2.30
  -1  -6   3  776.38   10.99
  -1  -6   3  779.11   12.88
  -1  -6   4   71.08    1.58
  -1  -6   5  248.29    4.10
  -1  -6   7  127.25    2.63
  -1  -6   7  126.75    2.64
  -1  -6   8   81.87    2.02
  -1  -6   8   78.15    2.02
  -1  -6   9   85.00    2.17
  -1  -6   9   91.48    2.23
  -1  -6  10  164.82    3.34
  -1  -6  11    4.63    0.80
  -1  -6  11    5.11    0.81
  -1  -6  12  172.82    3.35
  -1  -6  12  159.91    3.24
  -1  -6  13    2.64    0.66
  -1  -6  14   73.42    1.76
  -1  -6  15    0.78    0.44
  -1  -6  15    0.97    0.44
  -1  -5 -18   11.01    0.68
  -1  -5 -18   10.09    0.55
  -1  -5 -17   68.04    1.62
  -1  -5 -17   72.25    1.52
  -1  -5 -17   65.09    1.44
  -1  -5 -17   73.68    1.66
  -1  -5 -17   73.44    1.66
  -1  -5 -16   16.93    1.03
  -1  -5 -16   15.84    0.96
  -1  -5 -16   16.29    0.95
  -1  -5 -16   13.87    0.75
  -1  -5 -16   14.52    0.81
  -1  -5 -15   47.07    1.59
  -1  -5 -15   44.33    1.38
  -1  -5 -14   98.77    2.31
  -1  -5 -14  103.08    2.31
  -1  -5 -14  104.08    2.53
  -1  -5 -13   23.39    1.15
  -1  -5 -13   22.14    1.25
  -1  -5 -13   21.44    1.08
  -1  -5 -12   68.18    1.86
  -1  -5 -12   71.48    1.89
  -1  -5 -11  245.19    4.28
  -1  -5 -11  246.45    4.26
  -1  -5 -10  346.54    5.56
  -1  -5 -10  348.70    5.54
  -1  -5  -9   65.34    1.58
  -1  -5  -6  401.06    7.17
  -1  -5  -5  109.59    2.90
  -1  -5  -4  928.12   13.96
  -1  -5  -3   70.56    2.17
  -1  -5   1   22.14    1.39
  -1  -5   2  882.10   13.70
  -1  -5   3   36.40    1.88
  -1  -5   3   35.97    0.97
  -1  -5   4  474.19    6.94
  -1  -5   5  266.24    4.24
  -1  -5   6  142.86    2.68
  -1  -5   7  116.20    2.39
  -1  -5   7  114.42    2.42
  -1  -5   8   88.59    2.08
  -1  -5   8   92.80    2.15
  -1  -5   9  171.00    3.29
  -1  -5   9  161.20    3.27
  -1  -5  10   27.59    1.27
  -1  -5  10   31.95    1.32
  -1  -5  11  232.38    4.25
  -1  -5  11  219.92    4.18
  -1  -5  12    8.56    0.86
  -1  -5  12   10.58    0.91
  -1  -5  13  204.79    3.66
  -1  -5  13  177.50    3.49
  -1  -5  14    1.29    0.59
  -1  -5  15   27.78    0.99
  -1  -4 -18   59.89    1.27
  -1  -4 -18   50.82    1.18
  -1  -4 -17   15.17    0.81
  -1  -4 -17   13.59    0.64
  -1  -4 -17   15.66    0.92
  -1  -4 -17   13.87    0.84
  -1  -4 -16   60.72    1.55
  -1  -4 -16   62.74    1.58
  -1  -4 -15   41.59    1.41
  -1  -4 -15   41.89    1.32
  -1  -4 -15   42.79    1.51
  -1  -4 -14  154.16    2.97
  -1  -4 -14  148.80    2.97
  -1  -4 -14  152.27    3.22
  -1  -4 -13  110.04    2.41
  -1  -4 -13  110.84    2.64
  -1  -4 -13  108.48    2.42
  -1  -4 -12  105.07    2.35
  -1  -4 -12  102.10    2.28
  -1  -4 -12  108.23    2.37
  -1  -4 -11  330.81    5.37
  -1  -4 -11  328.75    5.35
  -1  -4 -10   17.84    0.90
  -1  -4 -10   18.55    0.89
  -1  -4  -5  531.78    8.52
  -1  -4  -4  305.29    5.29
  -1  -4  -3  318.42    5.38
  -1  -4   1  385.50    6.49
  -1  -4   2   13.25    1.29
  -1  -4   3  820.36   12.84
  -1  -4   4    2.79    0.46
  -1  -4   6   32.83    1.05
  -1  -4   7  213.96    3.66
  -1  -4   8   88.80    2.06
  -1  -4   8   85.83    1.99
  -1  -4   9  312.92    5.24
  -1  -4   9  310.04    5.21
  -1  -4  10   82.46    2.13
  -1  -4  11  190.86    3.72
  -1  -4  12  196.73    3.69
  -1  -4  12  185.16    3.69
  -1  -4  13   17.46    1.02
  -1  -4  13   17.65    1.02
  -1  -4  14  163.47    3.17
  -1  -4  15    3.67    0.60
  -1  -4  16   40.97    1.09
  -1  -3 -18    0.75    0.58
  -1  -3 -18    0.98    0.39
  -1  -3 -17   52.06    1.40
  -1  -3 -17   47.81    1.34
  -1  -3 -16   16.86    1.06
  -1  -3 -16   15.52    0.91
  -1  -3 -16   16.03    0.81
  -1  -3 -15  100.49    2.17
  -1  -3 -15  101.07    2.40
  -1  -3 -15   98.26    2.19
  -1  -3 -14   26.47    1.25
  -1  -3 -14   30.58    1.36
  -1  -3 -14   28.45    1.15
  -1  -3 -13   67.65    1.82
  -1  -3 -13   69.80    2.02
  -1  -3 -13   69.30    1.82
  -1  -3 -12   37.43    1.37
  -1  -3 -12   41.21    1.35
  -1  -3 -11   31.23    1.15
  -1  -3 -11   33.20    1.18
  -1  -3 -10   18.92    0.86
  -1  -3  -4  100.71    2.29
  -1  -3  -3  112.17    2.34
  -1  -3   1 1179.40   16.86
  -1  -3   2 9999.00  134.72
  -1  -3   5  127.00    2.24
  -1  -3   6  215.21    3.51
  -1  -3   7  359.95    5.56
  -1  -3   8  207.65    3.62
  -1  -3   9   63.17    1.69
  -1  -3   9   58.68    1.69
  -1  -3  10   38.84    1.39
  -1  -3  10   38.22    1.41
  -1  -3  11   36.55    1.37
  -1  -3  11   34.98    1.41
  -1  -3  12   11.89    0.92
  -1  -3  12   13.21    1.01
  -1  -3  13   51.72    1.62
  -1  -3  13   48.00    1.59
  -1  -3  14    1.63    0.66
  -1  -3  15   39.55    1.30
  -1  -3  16    8.39    0.61
  -1  -2 -18   85.54    1.63
  -1  -2 -17    7.93    0.66
  -1  -2 -17    7.85    0.81
  -1  -2 -16   39.44    1.36
  -1  -2 -15   16.31    1.06
  -1  -2 -15   15.53    0.90
  -1  -2 -14  105.80    2.50
  -1  -2 -14  100.35    2.27
  -1  -2 -14  101.39    2.22
  -1  -2 -13   23.28    1.22
  -1  -2 -13   22.02    1.04
  -1  -2 -13   21.32    1.13
  -1  -2 -12  164.20    3.31
  -1  -2 -12  161.21    3.00
  -1  -2 -12  164.08    3.08
  -1  -2 -11   85.28    1.92
  -1  -2 -11   91.95    2.00
  -1  -2  -8  128.73    2.70
  -1  -2  -7  553.41    8.28
  -1  -2  -6   37.11    1.05
  -1  -2  -5  370.41    5.38
  -1  -2  -4  356.60    5.00
  -1  -2  -3  453.55    6.68
  -1  -2  -2  638.70    9.04
  -1  -2   1 2150.35   29.53
  -1  -2   5   63.41    1.32
  -1  -2   6  115.17    2.10
  -1  -2   7  482.13    7.14
  -1  -2   8    2.41    0.57
  -1  -2   9  770.41   11.21
  -1  -2   9  764.97   11.30
  -1  -2  10   78.07    1.92
  -1  -2  10   68.69    1.93
  -1  -2  11   45.07    1.46
  -1  -2  11   42.37    1.53
  -1  -2  12  264.92    4.71
  -1  -2  12  268.87    4.80
  -1  -2  13    5.91    0.80
  -1  -2  13    7.06    0.86
  -1  -2  14   34.33    1.31
  -1  -2  14   27.87    1.20
  -1  -2  15   28.07    1.13
  -1  -2  16   56.07    1.41
  -1  -1 -18    1.18    0.52
  -1  -1 -17  124.26    2.39
  -1  -1 -17  132.44    2.39
  -1  -1 -16   20.73    1.00
  -1  -1 -16   20.69    1.07
  -1  -1 -15  104.54    2.40
  -1  -1 -15  102.17    2.30
  -1  -1 -14   27.82    1.29
  -1  -1 -14   26.03    1.11
  -1  -1 -13   91.37    2.13
  -1  -1 -13   92.83    2.12
  -1  -1 -13   92.13    2.08
  -1  -1 -12   53.65    1.51
  -1  -1 -12   51.23    1.51
  -1  -1 -11  169.09    3.28
  -1  -1 -11  165.87    2.97
  -1  -1 -11  170.93    3.07
  -1  -1 -10   23.41    0.95
  -1  -1  -8  427.67    6.94
  -1  -1  -7  439.29    6.85
  -1  -1  -6 1439.89   20.02
  -1  -1  -5  498.71    7.27
  -1  -1  -4  466.26    6.65
  -1  -1  -2   57.11    1.04
  -1  -1   0  703.36    9.75
  -1  -1   6  470.16    6.83
  -1  -1   8  192.49    3.31
  -1  -1   9   90.98    2.14
  -1  -1   9  101.96    2.12
  -1  -1  10  262.92    4.53
  -1  -1  10  251.38    4.36
  -1  -1  11  157.93    3.32
  -1  -1  11  171.57    3.27
  -1  -1  12   18.35    1.14
  -1  -1  13  108.09    2.60
  -1  -1  13  117.14    2.63
  -1  -1  14   47.12    1.52
  -1  -1  15   15.78    0.94
  -1  -1  16   21.95    0.91
  -1   0 -18   98.90    1.80
  -1   0 -18   96.97    1.67
  -1   0 -17    0.70    0.66
  -1   0 -16   26.27    1.07
  -1   0 -16   27.21    1.13
  -1   0 -15   23.63    1.11
  -1   0 -15   20.12    1.13
  -1   0 -14  261.65    4.63
  -1   0 -14  258.28    4.44
  -1   0 -13    0.92    0.62
  -1   0 -13    0.46    0.70
  -1   0 -12  110.76    2.31
  -1   0 -12  114.46    2.51
  -1   0 -12  106.42    2.21
  -1   0 -11   69.85    1.65
  -1   0 -11   72.07    1.84
  -1   0 -10  121.27    2.27
  -1   0 -10  130.78    2.56
  -1   0  -9   23.24    1.28
  -1   0  -8 1056.62   15.54
  -1   0  -7  928.32   13.58
  -1   0  -6  177.03    3.27
  -1   0  -5  444.59    6.70
  -1   0   7    8.65    0.59
  -1   0   8   11.26    0.69
  -1   0   9  309.15    4.80
  -1   0   9  309.59    4.92
  -1   0  10   10.18    0.93
  -1   0  10   11.92    0.81
  -1   0  10   12.15    0.88
  -1   0  11  379.57    6.16
  -1   0  11  382.29    6.30
  -1   0  12  136.10    2.97
  -1   0  13  284.34    4.97
  -1   0  13  275.14    4.95
  -1   0  14   46.99    1.54
  -1   0  14   37.27    1.41
  -1   0  15   93.25    2.17
  -1   0  16   66.48    1.61
  -1   1 -18   12.31    0.65
  -1   1 -17   72.26    1.52
  -1   1 -16    3.97    0.78
  -1   1 -15   77.26    1.95
  -1   1 -14   62.78    1.76
  -1   1 -14   65.51    1.83
  -1   1 -13  222.11    3.95
  -1   1 -13  230.66    4.16
  -1   1 -12   14.76    0.96
  -1   1 -11  165.56    3.14
  -1   1 -11  160.49    2.92
  -1   1 -10   69.56    1.71
  -1   1 -10   63.43    2.32
  -1   1  -8  109.16    2.76
  -1   1  -7  239.58    4.47
  -1   1  -6  195.53    3.67
  -1   1  -5 1190.22   16.83
  -1   1   6  794.06   11.06
  -1   1   7  128.00    2.25
  -1   1   8  468.11    6.94
  -1   1   9  118.38    2.42
  -1   1   9  123.04    2.53
  -1   1  10   87.90    2.08
  -1   1  10   93.15    2.07
  -1   1  10   91.71    2.14
  -1   1  11   31.77    1.38
  -1   1  11   34.73    1.38
  -1   1  11   32.94    1.32
  -1   1  12  116.08    2.69
  -1   1  13  167.74    3.42
  -1   1  14   75.10    1.99
  -1   1  14   73.86    1.98
  -1   1  15   65.81    1.75
  -1   1  16   31.78    1.09
  -1   2 -18   34.53    0.85
  -1   2 -18   33.63    0.83
  -1   2 -17    4.57    0.73
  -1   2 -17    4.15    0.56
  -1   2 -16   56.98    1.42
  -1   2 -14  150.56    3.02
  -1   2 -14  146.94    2.88
  -1   2 -13   31.85    1.30
  -1   2 -13   32.69    1.32
  -1   2 -12  276.78    4.76
  -1   2 -12  273.19    4.55
  -1   2 -11    3.56    0.97
  -1   2 -11    5.96    0.73
  -1   2 -10  224.73    5.03
  -1   2 -10  230.75    3.95
  -1   2  -9  125.17    3.30
  -1   2  -7   57.59    1.92
  -1   2  -6  537.17    8.46
  -1   2  -1  246.42    3.60
  -1   2   6   67.69    1.35
  -1   2   7  414.13    6.10
  -1   2   8    0.84    0.51
  -1   2   9  241.84    4.01
  -1   2   9  244.06    4.14
  -1   2   9  233.68    3.99
  -1   2  10   17.87    1.01
  -1   2  10   17.46    1.04
  -1   2  11  132.31    2.83
  -1   2  11  131.13    2.77
  -1   2  12   24.62    1.23
  -1   2  12   23.05    1.18
  -1   2  12   23.31    1.31
  -1   2  13  149.44    3.20
  -1   2  13  158.11    3.17
  -1   2  14   64.64    1.87
  -1   2  14   74.82    1.93
  -1   2  15   54.68    1.58
  -1   2  15   64.69    1.69
  -1   2  16   83.59    1.85
  -1   3 -18    0.87    0.37
  -1   3 -18    1.06    0.34
  -1   3 -17   33.84    1.01
  -1   3 -17   30.15    0.82
  -1   3 -16   10.41    0.72
  -1   3 -15  163.78    2.92
  -1   3 -14    0.33    0.80
  -1   3 -13  155.56    3.07
  -1   3 -13  147.03    2.89
  -1   3 -12   59.05    1.71
  -1   3 -12   59.77    2.70
  -1   3 -12   59.91    1.66
  -1   3 -11   44.54    1.41
  -1   3 -11   40.78    2.14
  -1   3 -11   41.05    1.34
  -1   3 -10    5.84    0.68
  -1   3 -10    7.07    0.79
  -1   3  -9  420.08    7.79
  -1   3  -8  375.50    6.92
  -1   3  -6   23.36    1.29
  -1   3  -1   28.88    0.87
  -1   3   9    4.79    0.74
  -1   3   9    4.63    0.65
  -1   3   9    3.36    0.75
  -1   3  10  207.90    3.83
  -1   3  10  209.03    3.73
  -1   3  11   31.47    1.23
  -1   3  11   27.69    1.24
  -1   3  11   28.58    1.31
  -1   3  12  155.49    3.19
  -1   3  12  148.99    3.12
  -1   3  13   58.03    1.80
  -1   3  13   54.91    1.82
  -1   3  14    7.69    0.79
  -1   3  14    8.19    0.84
  -1   3  15   17.72    0.93
  -1   3  15   14.56    0.88
  -1   3  16   45.85    1.26
  -1   4 -17    3.77    0.56
  -1   4 -17    3.43    0.61
  -1   4 -17    2.65    0.30
  -1   4 -16   56.48    1.42
  -1   4 -16   51.73    1.28
  -1   4 -13    1.24    1.00
  -1   4 -12   37.23    1.31
  -1   4 -12   36.07    2.21
  -1   4 -11    0.26    0.91
  -1   4 -11    0.57    0.76
  -1   4 -11    0.64    0.62
  -1   4 -10  154.99    2.92
  -1   4 -10  147.92    4.17
  -1   4 -10  144.47    2.70
  -1   4  -9    9.63    0.72
  -1   4  -9    6.35    1.12
  -1   4  -9    7.51    0.74
  -1   4  -8  749.23   12.27
  -1   4  -7    2.33    0.88
  -1   4  -1 1150.14   16.15
  -1   4   6   15.65    0.63
  -1   4   7   68.02    1.45
  -1   4   8    0.67    0.69
  -1   4   8    1.03    0.45
  -1   4   9  183.66    3.37
  -1   4   9  188.74    3.33
  -1   4  10   25.12    1.15
  -1   4  10   26.46    1.23
  -1   4  10   29.08    1.10
  -1   4  10   25.72    1.23
  -1   4  11  105.63    2.48
  -1   4  11  111.02    2.41
  -1   4  11  103.60    2.44
  -1   4  12   59.95    1.81
  -1   4  12   59.79    1.84
  -1   4  13   81.56    2.15
  -1   4  13   80.07    2.19
  -1   4  14    5.02    0.76
  -1   4  14    5.58    0.73
  -1   4  14    4.77    0.96
  -1   4  15  105.54    2.16
  -1   4  15   86.03    2.09
  -1   5 -17   26.31    0.78
  -1   5 -17   25.61    0.70
  -1   5 -16   15.79    0.64
  -1   5 -16   17.57    0.83
  -1   5 -15   73.28    1.68
  -1   5 -15   75.65    1.76
  -1   5 -13  190.49    5.30
  -1   5 -12   81.42    3.21
  -1   5 -11  337.34    7.35
  -1   5 -10   81.21    3.09
  -1   5  -9  217.67    5.25
  -1   5  -8   39.96    2.01
  -1   5  -7  280.56    5.77
  -1   5  -6    6.16    0.99
  -1   5  -1  417.79    6.61
  -1   5   0  598.63    9.10
  -1   5   5  489.08    6.96
  -1   5   6  819.15   11.44
  -1   5   7    9.82    0.58
  -1   5   8  483.07    7.30
  -1   5   8  479.05    7.19
  -1   5   8  497.66    7.47
  -1   5   9   64.76    1.71
  -1   5   9   70.46    1.62
  -1   5   9   67.51    1.80
  -1   5  10  140.31    2.96
  -1   5  10  143.35    2.89
  -1   5  10  143.05    2.79
  -1   5  10  146.29    3.03
  -1   5  11   28.71    1.27
  -1   5  11   32.46    1.19
  -1   5  11   29.13    1.35
  -1   5  12   29.02    1.30
  -1   5  12   31.64    1.22
  -1   5  12   27.58    1.36
  -1   5  13   15.37    1.01
  -1   5  13   17.45    0.97
  -1   5  13   15.80    1.17
  -1   5  14   94.08    2.29
  -1   5  14   89.93    2.30
  -1   5  15   11.23    0.80
  -1   6 -16   13.35    0.48
  -1   6 -16   15.04    0.78
  -1   6 -16   15.70    0.69
  -1   6 -15   14.01    0.70
  -1   6 -15   15.08    0.87
  -1   6 -14   73.14    1.71
  -1   6 -14   72.23    1.77
  -1   6 -13   38.75    1.40
  -1   6 -12  105.71    3.76
  -1   6 -11    4.77    1.21
  -1   6 -10  166.55    4.72
  -1   6  -9    2.24    1.08
  -1   6  -8  175.12    4.60
  -1   6  -7   23.53    1.61
  -1   6  -6  314.15    6.29
  -1   6  -5  182.28    4.17
  -1   6  -1  392.61    6.53
  -1   6   0  766.96   11.63
  -1   6   1  710.56   10.98
  -1   6   6    5.16    0.46
  -1   6   7  264.94    4.16
  -1   6   8   25.89    1.03
  -1   6   8   29.36    1.17
  -1   6   8   26.75    0.94
  -1   6   8   31.07    1.20
  -1   6   9  362.39    5.63
  -1   6   9  359.50    5.49
  -1   6   9  370.71    5.82
  -1   6  10   34.42    1.42
  -1   6  10   36.50    1.21
  -1   6  10   34.93    1.41
  -1   6  11   45.16    1.59
  -1   6  11   48.65    1.67
  -1   6  11   49.70    1.47
  -1   6  11   45.00    1.65
  -1   6  12    3.77    0.77
  -1   6  12    4.93    0.68
  -1   6  12    4.33    0.97
  -1   6  13   21.11    1.24
  -1   6  13   19.82    1.09
  -1   6  14   70.80    1.87
  -1   7 -16   22.87    0.74
  -1   7 -15   38.25    0.94
  -1   7 -15   39.04    1.05
  -1   7 -15   40.55    1.17
  -1   7 -14   18.91    0.82
  -1   7 -14   18.96    0.96
  -1   7 -14   19.10    1.08
  -1   7 -13   31.50    1.22
  -1   7 -12   72.51    1.83
  -1   7 -12   71.30    1.85
  -1   7 -11  113.54    2.45
  -1   7 -11  107.48    3.79
  -1   7 -11  109.57    2.41
  -1   7 -10    2.78    1.18
  -1   7 -10    3.32    0.93
  -1   7  -9   26.49    1.97
  -1   7  -9   28.34    1.23
  -1   7  -8    6.28    1.28
  -1   7  -8    5.38    0.87
  -1   7  -7   88.81    1.97
  -1   7  -7   89.36    3.16
  -1   7  -7   83.23    1.89
  -1   7  -6   66.08    1.61
  -1   7  -6   70.45    2.65
  -1   7  -6   65.05    1.55
  -1   7  -5  928.53   14.76
  -1   7  -1   95.69    2.55
  -1   7   0  179.69    3.88
  -1   7   1  319.10    5.94
  -1   7   8  453.58    7.05
  -1   7   8  499.42    7.44
  -1   7   9   26.14    1.24
  -1   7   9   22.26    1.09
  -1   7   9   24.87    1.24
  -1   7  10  224.55    4.02
  -1   7  10  213.27    3.86
  -1   7  11    9.05    1.06
  -1   7  11    8.63    0.89
  -1   7  11    8.91    1.00
  -1   7  12   56.87    1.82
  -1   7  12   59.11    1.80
  -1   7  13   44.63    1.63
  -1   7  13   45.52    1.54
  -1   7  14  241.93    4.25
  -1   7  15    3.83    0.84
  -1   8 -15   61.05    1.31
  -1   8 -14   33.83    0.93
  -1   8 -14   35.09    1.17
  -1   8 -14   32.89    1.00
  -1   8 -13   62.25    1.49
  -1   8 -13   60.68    1.53
  -1   8 -13   63.97    1.66
  -1   8 -11    0.59    0.65
  -1   8 -11   -0.11    1.05
  -1   8 -11    0.65    0.83
  -1   8 -10   99.61    2.25
  -1   8 -10   94.85    3.60
  -1   8 -10   97.77    2.20
  -1   8  -9   25.80    1.16
  -1   8  -9   24.44    1.96
  -1   8  -9   24.71    1.19
  -1   8  -8  139.56    2.79
  -1   8  -8  143.46    4.34
  -1   8  -8  134.39    2.68
  -1   8  -7  151.99    2.93
  -1   8  -7  146.30    2.80
  -1   8  -6  199.36    3.51
  -1   8  -6  201.77    5.07
  -1   8  -6  196.12    3.37
  -1   8  -5    7.79    1.27
  -1   8  -5    8.68    0.73
  -1   8  -1   11.52    1.05
  -1   8   0  267.08    5.37
  -1   8   5  349.85    5.54
  -1   8   8    3.40    0.80
  -1   8   9  415.11    6.73
  -1   8   9  425.14    6.60
  -1   8  10    5.58    0.91
  -1   8  10    4.27    0.85
  -1   8  10    5.11    1.01
  -1   8  11   72.27    2.07
  -1   8  11   77.28    2.15
  -1   8  12    7.60    1.06
  -1   8  12    8.20    0.87
  -1   8  12    7.57    0.95
  -1   8  13  165.54    3.29
  -1   8  14   -0.55    0.85
  -1   8  14    0.37    0.56
  -1   8  15  157.33    2.92
  -1   9 -15    4.27    0.42
  -1   9 -14   35.90    0.81
  -1   9 -14   36.87    1.04
  -1   9 -13   36.76    1.00
  -1   9 -13   36.86    1.20
  -1   9 -12   25.90    0.97
  -1   9 -12   24.85    1.02
  -1   9 -12   27.42    1.18
  -1   9 -11   51.69    1.46
  -1   9 -10   20.98    1.03
  -1   9 -10   23.10    1.91
  -1   9 -10   21.64    1.23
  -1   9 -10   20.59    1.10
  -1   9  -9  126.30    2.61
  -1   9  -9  123.37    4.14
  -1   9  -9  124.10    2.59
  -1   9  -9  121.88    2.51
  -1   9  -8   12.26    0.90
  -1   9  -8   11.25    1.54
  -1   9  -8   12.46    0.97
  -1   9  -7  172.11    3.24
  -1   9  -7  177.69    4.92
  -1   9  -7  166.47    3.14
  -1   9  -6   47.15    1.46
  -1   9  -6   48.77    1.48
  -1   9  -5  136.08    2.66
  -1   9  -5  128.38    3.97
  -1   9  -5  132.73    2.54
  -1   9  -4    8.43    1.27
  -1   9  -4    7.41    0.74
  -1   9  -3  314.24    5.01
  -1   9   0  124.63    3.47
  -1   9   1   90.89    2.95
  -1   9   2    4.14    0.96
  -1   9   3   10.11    1.24
  -1   9   3   11.10    0.81
  -1   9   4   12.62    1.41
  -1   9   4   13.49    0.87
  -1   9   5  132.78    2.69
  -1   9   8   43.45    1.47
  -1   9   9   12.46    1.06
  -1   9   9   10.40    1.00
  -1   9   9   13.31    1.15
  -1   9  10   65.85    1.99
  -1   9  10   66.47    1.97
  -1   9  11    7.92    1.07
  -1   9  11    8.46    0.97
  -1   9  12  218.64    4.03
  -1   9  12  219.29    4.11
  -1   9  12  210.72    4.04
  -1   9  14  129.55    2.62
  -1   9  14  124.56    2.54
  -1   9  15    4.17    0.76
  -1  10 -13   30.47    0.97
  -1  10 -13   29.26    0.77
  -1  10 -12   70.39    1.63
  -1  10 -12   69.95    1.50
  -1  10 -11    8.71    0.90
  -1  10 -11    9.18    0.70
  -1  10 -10   22.80    1.00
  -1  10  -9    9.89    1.01
  -1  10  -9   11.02    1.50
  -1  10  -9   11.18    0.84
  -1  10  -8   57.17    1.68
  -1  10  -8   60.87    2.91
  -1  10  -8   60.38    1.67
  -1  10  -7   26.98    1.25
  -1  10  -7   30.56    2.14
  -1  10  -7   27.87    1.18
  -1  10  -6  104.46    2.27
  -1  10  -6  107.56    2.36
  -1  10  -6  105.77    3.75
  -1  10  -5   16.32    0.97
  -1  10  -5   14.62    1.63
  -1  10  -4  282.86    4.71
  -1  10  -4  272.84    6.37
  -1  10  -3   12.22    0.84
  -1  10  -3   12.91    1.43
  -1  10  -2  134.07    2.67
  -1  10  -2  131.32    2.63
  -1  10  -1    7.34    0.77
  -1  10  -1    7.33    0.75
  -1  10   0  213.89    3.71
  -1  10   0  206.06    3.66
  -1  10   0  203.37    4.96
  -1  10   1   28.21    1.14
  -1  10   1   27.58    1.11
  -1  10   1   25.57    1.73
  -1  10   2  330.92    5.40
  -1  10   2  330.99    7.04
  -1  10   2  336.98    5.41
  -1  10   3  176.17    4.80
  -1  10   3  179.99    3.35
  -1  10   4  149.53    4.46
  -1  10   4  147.80    2.96
  -1  10   5  133.52    4.32
  -1  10   5  136.42    2.84
  -1  10   6   94.92    3.68
  -1  10   8    7.35    0.99
  -1  10   9   53.35    1.79
  -1  10   9   49.26    1.62
  -1  10   9   53.38    1.81
  -1  10  10    1.59    0.82
  -1  10  10    0.81    0.85
  -1  10  10    1.43    0.95
  -1  10  11   20.52    1.26
  -1  10  11   21.11    1.20
  -1  10  12    3.49    0.80
  -1  10  12    2.67    0.71
  -1  10  13   55.28    1.66
  -1  10  13   53.82    1.56
  -1  10  14    0.54    0.75
  -1  10  14    0.54    0.51
  -1  10  15   33.00    1.10
  -1  11 -12   55.28    1.27
  -1  11 -12   56.47    1.16
  -1  11 -11   45.52    1.27
  -1  11 -11   46.99    1.18
  -1  11 -10   45.76    1.35
  -1  11 -10   46.10    1.28
  -1  11  -9  125.93    2.51
  -1  11  -8   10.06    0.96
  -1  11  -8   10.40    0.84
  -1  11  -8   12.35    1.56
  -1  11  -7  152.68    3.00
  -1  11  -7  152.06    4.67
  -1  11  -6   65.51    1.79
  -1  11  -6   75.39    3.17
  -1  11  -5   11.95    0.91
  -1  11  -5   11.51    1.53
  -1  11  -4   16.18    0.99
  -1  11  -4   15.82    1.64
  -1  11  -3  189.78    3.54
  -1  11  -3  194.25    3.57
  -1  11  -2    0.15    0.66
  -1  11  -2    0.16    0.67
  -1  11  -2    0.95    0.98
  -1  11  -1  186.65    3.49
  -1  11  -1  184.35    3.46
  -1  11   0    8.07    0.85
  -1  11   0    6.40    0.80
  -1  11   1  127.83    2.68
  -1  11   1  124.73    2.65
  -1  11   1  124.35    3.92
  -1  11   2   27.01    1.19
  -1  11   2   27.35    1.92
  -1  11   2   28.11    1.21
  -1  11   3  155.04    4.60
  -1  11   3  152.11    3.07
  -1  11   4   22.68    1.89
  -1  11   4   21.17    1.15
  -1  11   5  159.18    4.91
  -1  11   6   22.17    2.01
  -1  11   7  139.33    4.78
  -1  11   8   34.29    2.49
  -1  11   8   35.01    1.45
  -1  11   9   10.46    1.69
  -1  11   9    9.85    1.12
  -1  11   9    9.46    1.03
  -1  11   9    8.88    0.99
  -1  11  10  213.47    6.26
  -1  11  10  227.48    4.23
  -1  11  10  212.55    3.94
  -1  11  10  232.66    4.17
  -1  11  11   39.58    1.49
  -1  11  12  111.23    2.49
  -1  11  13   11.17    0.95
  -1  11  13    9.91    0.75
  -1  11  14   22.68    1.02
  -1  11  14   23.06    0.87
  -1  12 -11   52.64    1.12
  -1  12 -10   83.04    1.69
  -1  12  -9   38.34    1.17
  -1  12  -7   12.06    0.85
  -1  12  -7   12.92    0.87
  -1  12  -6   85.45    2.09
  -1  12  -6   89.96    2.10
  -1  12  -6   91.03    3.46
  -1  12  -5    6.98    0.84
  -1  12  -5    6.92    0.84
  -1  12  -5    9.19    1.45
  -1  12  -4   35.31    1.38
  -1  12  -4   39.34    1.40
  -1  12  -4   34.19    2.18
  -1  12  -3    1.20    0.74
  -1  12  -3    0.90    0.73
  -1  12  -3    1.24    1.03
  -1  12  -2  235.82    4.24
  -1  12  -2  238.37    4.25
  -1  12  -2  227.15    5.62
  -1  12  -1   64.75    1.84
  -1  12  -1   67.69    1.87
  -1  12   0   38.87    1.45
  -1  12   0   39.82    1.46
  -1  12   1    0.02    0.75
  -1  12   1   -0.65    0.87
  -1  12   1   -0.07    0.75
  -1  12   2  122.19    4.11
  -1  12   2  128.68    2.78
  -1  12   3    5.75    1.28
  -1  12   3    4.14    0.86
  -1  12   4  205.09    5.71
  -1  12   4  207.70    3.95
  -1  12   5   53.34    2.84
  -1  12   6   40.85    2.57
  -1  12   7   44.10    2.72
  -1  12   8  150.53    5.05
  -1  12   8  163.40    3.22
  -1  12   9   95.99    2.42
  -1  12   9   96.39    2.29
  -1  12   9   99.79    2.43
  -1  12  10   53.97    1.72
  -1  12  11  161.18    3.17
  -1  12  12    5.29    0.90
  -1  12  12    5.18    0.73
  -1  12  12    5.59    0.69
  -1  12  13   19.12    1.01
  -1  12  13   19.97    0.86
  -1  12  14    4.68    0.62
  -1  12  14    4.89    0.45
  -1  13 -10    9.92    0.50
  -1  13  -9   45.10    1.14
  -1  13  -8   17.50    0.83
  -1  13  -7   49.59    1.37
  -1  13  -6   23.92    1.07
  -1  13  -5   74.99    1.88
  -1  13  -5   72.32    1.88
  -1  13  -4    1.38    0.74
  -1  13  -4    0.97    0.70
  -1  13  -4    0.96    1.04
  -1  13  -3  249.12    4.39
  -1  13  -3  252.81    4.40
  -1  13  -2   94.22    2.28
  -1  13  -2   92.81    2.28
  -1  13  -2   91.45    3.31
  -1  13  -1  308.19    5.20
  -1  13  -1  307.12    5.21
  -1  13   0   28.00    1.30
  -1  13   0   29.78    1.34
  -1  13   1  178.74    3.52
  -1  13   2   48.33    1.65
  -1  13   3   72.27    3.20
  -1  13   3   71.32    2.03
  -1  13   4   17.05    1.75
  -1  13   4   17.53    1.15
  -1  13   5   65.45    3.13
  -1  13   6   16.11    1.74
  -1  13   7   77.76    3.48
  -1  13   7   90.24    2.24
  -1  13   8   20.22    1.17
  -1  13   8   19.68    1.17
  -1  13   8   20.45    1.24
  -1  13  10   20.67    1.08
  -1  13  10   20.42    1.10
  -1  13  10   21.96    1.19
  -1  13  11   70.85    1.83
  -1  13  11   67.12    1.75
  -1  13  12   24.12    1.08
  -1  13  12   25.73    0.98
  -1  13  13   23.16    0.94
  -1  13  13   24.91    0.82
  -1  13  14   11.76    0.57
  -1  14  -9    1.15    0.32
  -1  14  -8    3.60    0.48
  -1  14  -7   28.35    0.97
  -1  14  -6   66.92    1.64
  -1  14  -6   67.81    1.59
  -1  14  -5    0.91    0.60
  -1  14  -4   25.20    1.12
  -1  14  -4   21.39    0.95
  -1  14  -3   71.08    1.87
  -1  14  -3   69.59    1.85
  -1  14  -2  126.41    2.71
  -1  14  -2  125.85    2.70
  -1  14  -1  119.11    2.65
  -1  14  -1  118.28    2.62
  -1  14   0   82.89    2.16
  -1  14   1   19.98    1.18
  -1  14   2   69.51    1.98
  -1  14   3    1.39    0.82
  -1  14   7   23.32    1.01
  -1  14   8   27.93    1.26
  -1  14   8   27.33    1.30
  -1  14   9   19.87    1.03
  -1  14   9   20.62    1.09
  -1  14   9   20.31    1.12
  -1  14  10   29.75    1.14
  -1  14  10   30.43    1.22
  -1  14  10   29.08    1.15
  -1  14  11    3.61    0.74
  -1  14  11    4.03    0.58
  -1  14  11    3.64    0.60
  -1  14  12   51.92    1.31
  -1  14  12   53.68    1.25
  -1  14  13   11.92    0.60
  -1  14  13   13.11    0.48
  -1  15  -7    9.21    0.52
  -1  15  -6   27.43    0.90
  -1  15  -5   42.06    1.15
  -1  15  -5   41.65    1.22
  -1  15  -4   11.24    0.76
  -1  15  -4   11.95    0.81
  -1  15  -4   12.86    0.73
  -1  15  -3   60.02    1.56
  -1  15  -3   57.40    1.45
  -1  15  -3   58.56    1.60
  -1  15  -2    6.55    0.74
  -1  15   0   27.32    1.21
  -1  15   1  146.59    3.00
  -1  15   2   35.35    1.38
  -1  15   5   57.39    1.57
  -1  15   6    2.04    0.88
  -1  15   6    1.82    0.68
  -1  15   7  102.64    2.23
  -1  15   7  100.50    2.26
  -1  15   8   12.11    0.84
  -1  15   8   12.73    0.96
  -1  15   8   11.49    0.94
  -1  15   9   31.63    1.11
  -1  15   9   32.91    1.17
  -1  15   9   33.39    1.20
  -1  15  10   10.91    0.68
  -1  15  10    9.80    0.77
  -1  15  11   75.73    1.54
  -1  15  11   73.29    1.55
  -1  15  12    7.55    0.38
  -1  15  12    6.92    0.47
  -1  16  -5    6.62    0.50
  -1  16  -4   33.91    1.00
  -1  16  -3    4.21    0.57
  -1  16  -3    4.44    0.59
  -1  16  -2    7.86    0.69
  -1  16  -2    7.79    0.69
  -1  16  -1    0.25    0.62
  -1  16  -1    0.88    0.60
  -1  16   0   55.24    1.46
  -1  16   0   54.71    1.53
  -1  16   1    1.03    0.67
  -1  16   1    0.92    0.65
  -1  16   2  120.00    2.40
  -1  16   3    4.05    0.75
  -1  16   4   60.61    1.55
  -1  16   5    4.76    0.70
  -1  16   5    4.80    0.85
  -1  16   6   31.76    1.21
  -1  16   6   26.98    1.13
  -1  16   7    0.38    0.54
  -1  16   7    0.33    0.70
  -1  16   7    0.35    0.66
  -1  16   8   45.00    1.23
  -1  16   8   45.78    1.29
  -1  16   9    7.51    0.55
  -1  16   9    7.17    0.63
  -1  16   9    7.09    0.66
  -1  16  10   31.52    0.87
  -1  16  10   33.22    0.87
  -1  17  -1    5.56    0.59
  -1  17   0   10.84    0.70
  -1  17   1   68.58    1.53
  -1  17   2    1.57    0.60
  -1  17   3   42.54    1.18
  -1  17   4    0.36    0.69
  -1  17   4    0.66    0.56
  -1  17   5   22.03    0.95
  -1  17   5   17.81    0.84
  -1  17   5   23.09    0.84
  -1  17   5   17.74    0.79
  -1  17   6    5.95    0.53
  -1  17   6    6.12    0.68
  -1  17   6    5.04    0.61
  -1  17   7   16.88    0.66
  -1  17   7   16.72    0.72
  -1  17   8    1.77    0.32
  -1  17   8    1.95    0.48
  -1  17   8    1.53    0.41
  -1  17   9    5.76    0.34
  -1  18   0   25.17    0.76
  -1  18   1    3.69    0.49
  -1  18   2   22.59    0.78
  -1  18   3   10.13    0.61
  -1  18   3    6.78    0.40
  -1  18   4   27.02    0.79
  -1  18   4   18.84    0.57
  -1  18   5    0.20    0.43
  -1  18   6   27.32    0.72
   0 -18  -6    7.20    0.56
   0 -18  -5   64.87    1.38
   0 -18  -4    0.67    0.63
   0 -18  -3   36.01    0.91
   0 -18  -3   55.07    1.25
   0 -18  -2    0.61    0.50
   0 -18  -2    0.98    0.65
   0 -18  -1   85.69    1.76
   0 -18  -1  103.37    1.85
   0 -18   0    5.03    0.59
   0 -18   0    4.90    0.63
   0 -18   1   71.40    1.48
   0 -18   2   26.50    0.84
   0 -18   3   14.15    0.59
   0 -17 -10   46.42    0.93
   0 -17  -9    1.01    0.38
   0 -17  -8   43.41    1.10
   0 -17  -7   17.43    0.79
   0 -17  -7   16.59    0.75
   0 -17  -6   37.12    1.16
   0 -17  -6   34.07    1.06
   0 -17  -5    3.35    0.78
   0 -17  -5    3.51    0.56
   0 -17  -4   80.87    1.82
   0 -17  -4   68.82    1.71
   0 -17  -3    0.28    0.82
   0 -17  -3   -0.01    0.52
   0 -17  -3    0.62    0.61
   0 -17  -2   62.91    1.63
   0 -17  -2   62.22    1.59
   0 -17  -1    0.56    0.79
   0 -17  -1    0.33    0.52
   0 -17  -1    0.35    0.69
   0 -17   0   86.48    1.96
   0 -17   0   90.12    1.99
   0 -17   1   35.24    1.20
   0 -17   1   33.68    1.09
   0 -17   2   78.41    1.69
   0 -17   2   85.75    1.81
   0 -17   3   30.10    0.90
   0 -17   3   32.33    1.01
   0 -17   4   20.78    0.82
   0 -17   4   16.25    0.66
   0 -17   5    2.46    0.32
   0 -17   5    4.71    0.41
   0 -16 -11   50.42    1.12
   0 -16 -10   18.45    0.77
   0 -16  -9   28.57    1.00
   0 -16  -9   27.05    0.90
   0 -16  -8    6.23    0.61
   0 -16  -8    6.56    0.68
   0 -16  -8    5.66    0.67
   0 -16  -7   39.08    1.17
   0 -16  -7   40.09    1.27
   0 -16  -7   41.18    1.27
   0 -16  -6    0.46    0.79
   0 -16  -6    0.69    0.61
   0 -16  -5   63.60    1.67
   0 -16  -4    0.15    0.66
   0 -16  -3   35.74    1.28
   0 -16  -2    0.29    0.63
   0 -16  -2   -0.67    0.78
   0 -16  -1   80.50    2.04
   0 -16  -1   82.69    2.01
   0 -16   0    0.32    0.57
   0 -16   0    0.45    0.63
   0 -16   0    0.52    0.78
   0 -16   1   67.65    1.76
   0 -16   1   71.43    1.84
   0 -16   1   72.39    1.86
   0 -16   2   29.01    1.15
   0 -16   2   26.50    1.21
   0 -16   2   26.38    1.09
   0 -16   3  152.86    2.87
   0 -16   3  142.18    2.81
   0 -16   4   34.29    1.22
   0 -16   4   29.11    1.12
   0 -16   5   37.90    1.13
   0 -16   5   31.97    1.04
   0 -16   6   24.21    0.69
   0 -16   7    8.75    0.53
   0 -15 -13   19.66    0.58
   0 -15 -12   15.96    0.68
   0 -15 -11   12.30    0.69
   0 -15 -11   12.98    0.75
   0 -15 -10   12.72    0.76
   0 -15 -10   14.01    0.83
   0 -15  -9   18.04    0.88
   0 -15  -9   18.10    0.97
   0 -15  -8   34.82    1.20
   0 -15  -8   36.72    1.30
   0 -15  -7   10.66    0.94
   0 -15  -5    2.84    0.65
   0 -15  -3   15.58    1.06
   0 -15  -2  113.60    2.51
   0 -15  -1    8.52    0.98
   0 -15  -1    9.66    0.94
   0 -15   0   16.75    1.14
   0 -15   0   17.24    1.07
   0 -15   1    0.30    0.83
   0 -15   1    0.74    0.68
   0 -15   2   33.18    1.32
   0 -15   3    2.99    0.83
   0 -15   3    3.55    0.70
   0 -15   4   61.08    1.73
   0 -15   4   53.91    1.61
   0 -15   5   36.54    1.32
   0 -15   5   33.14    1.26
   0 -15   6    7.71    0.80
   0 -15   6    6.35    0.67
   0 -15   7    5.87    0.59
   0 -15   8   21.46    0.74
   0 -15   9   22.41    0.61
   0 -14 -14   35.66    0.81
   0 -14 -13    5.02    0.49
   0 -14 -13    5.90    0.55
   0 -14 -12   69.41    1.58
   0 -14 -12   70.90    1.63
   0 -14 -11   18.89    0.92
   0 -14 -11   20.86    0.94
   0 -14 -11   21.92    1.02
   0 -14 -10   62.81    1.64
   0 -14 -10   65.66    1.74
   0 -14  -9   20.98    1.05
   0 -14  -8   71.66    1.85
   0 -14  -8   71.02    1.93
   0 -14  -7  103.23    2.33
   0 -14  -7  106.01    2.45
   0 -14  -6   48.29    3.26
   0 -14  -6   45.16    3.18
   0 -14  -6   48.60    1.53
   0 -14  -5  213.78    6.70
   0 -14  -5  205.61    6.16
   0 -14  -4    1.69    1.71
   0 -14  -4    1.78    2.19
   0 -14  -4    1.35    0.77
   0 -14  -3   72.49    1.97
   0 -14  -3   85.08    4.17
   0 -14  -3   86.85    4.06
   0 -14  -3   79.21    3.87
   0 -14  -2   23.25    1.25
   0 -14  -2   28.59    2.92
   0 -14  -2   31.91    2.83
   0 -14  -2   25.77    2.42
   0 -14  -1  116.25    2.68
   0 -14  -1  133.01    5.14
   0 -14  -1  132.17    4.88
   0 -14  -1  119.54    4.80
   0 -14   0    9.88    1.08
   0 -14   0   11.13    1.00
   0 -14   0   10.30    2.08
   0 -14   0   13.79    1.98
   0 -14   0   12.17    2.49
   0 -14   0    9.81    0.84
   0 -14   1  103.84    2.51
   0 -14   1  105.23    2.54
   0 -14   1  115.19    4.74
   0 -14   1  107.50    4.50
   0 -14   1  114.01    4.48
   0 -14   1   98.84    2.32
   0 -14   2   27.76    1.39
   0 -14   2   28.15    1.29
   0 -14   2   23.50    2.34
   0 -14   2   25.81    2.71
   0 -14   2   27.91    2.62
   0 -14   2   26.39    1.11
   0 -14   3   26.15    1.35
   0 -14   3   26.14    1.24
   0 -14   3   25.60    2.47
   0 -14   3   22.50    1.01
   0 -14   4    1.85    0.70
   0 -14   4    1.75    0.90
   0 -14   6   23.40    1.14
   0 -14   6   25.05    1.17
   0 -14   7   24.41    1.06
   0 -14   8   11.56    0.75
   0 -14   9   25.10    0.89
   0 -13 -15   26.02    0.63
   0 -13 -14    1.99    0.45
   0 -13 -14    1.57    0.43
   0 -13 -13   40.52    1.11
   0 -13 -13   39.36    1.19
   0 -13 -12   18.90    0.95
   0 -13 -12   19.50    0.96
   0 -13 -12   16.43    0.97
   0 -13 -12   20.31    1.01
   0 -13 -11   77.31    1.93
   0 -13 -11   76.99    1.92
   0 -13 -11   80.51    1.83
   0 -13 -10   13.42    0.94
   0 -13 -10   14.10    0.97
   0 -13 -10   12.91    1.00
   0 -13 -10   14.62    1.01
   0 -13  -9   74.16    1.96
   0 -13  -9   80.29    2.04
   0 -13  -9   80.23    2.11
   0 -13  -8   69.68    1.90
   0 -13  -8   71.02    1.99
   0 -13  -7   16.76    1.04
   0 -13  -7   17.23    2.45
   0 -13  -7   17.06    1.05
   0 -13  -6   55.62    3.45
   0 -13  -6   55.69    3.34
   0 -13  -6   46.26    1.50
   0 -13  -5   26.92    2.82
   0 -13  -5   28.16    2.75
   0 -13  -4  120.35    4.57
   0 -13  -4  115.03    4.79
   0 -13  -3   93.43    4.11
   0 -13  -3   89.05    4.26
   0 -13  -2  160.90    5.33
   0 -13  -2  164.61    5.65
   0 -13  -1    3.81    0.93
   0 -13  -1    5.15    2.39
   0 -13  -1    4.93    1.62
   0 -13  -1    3.81    1.86
   0 -13  -1    3.92    0.75
   0 -13   0  167.88    3.39
   0 -13   0  172.74    5.59
   0 -13   0  170.00    5.73
   0 -13   0  178.76    5.96
   0 -13   0  170.17    3.35
   0 -13   1   30.15    1.46
   0 -13   1   30.11    1.35
   0 -13   1   29.96    2.75
   0 -13   1   32.77    2.66
   0 -13   1   32.02    2.99
   0 -13   1   31.02    1.26
   0 -13   2  521.57    8.00
   0 -13   2  503.26    8.09
   0 -13   2  499.29   11.13
   0 -13   2  515.47   11.34
   0 -13   2  519.05   10.59
   0 -13   2  493.46    7.85
   0 -13   3   17.79    1.27
   0 -13   3   18.05    1.11
   0 -13   3   17.58    2.42
   0 -13   3   18.16    2.30
   0 -13   3   17.95    0.97
   0 -13   4  155.88    3.23
   0 -13   4  150.62    5.35
   0 -13   5   29.99    1.40
   0 -13   5   28.52    1.28
   0 -13   5   26.70    2.45
   0 -13   6   59.39    1.77
   0 -13   6   54.54    1.76
   0 -13   7   16.20    1.03
   0 -13   7   15.99    1.02
   0 -13   8   34.02    1.19
   0 -13   8   48.10    1.45
   0 -13   9   11.53    0.70
   0 -13   9   20.04    0.91
   0 -13  10   28.26    0.93
   0 -13  10   23.46    0.83
   0 -12 -15    2.14    0.41
   0 -12 -15    2.23    0.43
   0 -12 -15    1.79    0.52
   0 -12 -14   28.45    1.00
   0 -12 -14   26.31    1.04
   0 -12 -14   25.69    0.99
   0 -12 -13    2.14    0.68
   0 -12 -13    2.26    0.67
   0 -12 -13    1.71    0.78
   0 -12 -13    1.75    0.75
   0 -12 -12  101.25    2.16
   0 -12 -12   96.74    2.26
   0 -12 -11   14.40    0.99
   0 -12 -11   12.79    1.06
   0 -12 -11   13.17    1.01
   0 -12 -10  201.26    3.79
   0 -12 -10  196.89    3.73
   0 -12 -10  202.35    3.88
   0 -12  -9   50.25    1.65
   0 -12  -9   48.27    1.62
   0 -12  -9   52.51    1.74
   0 -12  -8   35.49    1.40
   0 -12  -8   33.28    1.37
   0 -12  -8   36.89    1.48
   0 -12  -7    7.80    2.15
   0 -12  -7    6.52    1.90
   0 -12  -7    8.85    0.90
   0 -12  -6  219.74    6.69
   0 -12  -6  205.82    5.96
   0 -12  -5  407.25    8.64
   0 -12  -5  411.53    9.47
   0 -12  -4   19.42    1.06
   0 -12  -4   20.18    1.02
   0 -12  -3  171.34    3.32
   0 -12  -3  198.90    5.71
   0 -12  -3  200.18    6.18
   0 -12  -3  196.44    3.51
   0 -12  -3  175.35    3.32
   0 -12  -2    1.14    0.66
   0 -12  -2    1.01    0.50
   0 -12  -2    2.54    2.17
   0 -12  -2    0.76    1.68
   0 -12  -2    0.78    0.78
   0 -12  -1   50.74    1.57
   0 -12  -1   48.31    1.43
   0 -12  -1   49.27    3.28
   0 -12  -1   46.72    1.56
   0 -12   0   54.63    1.63
   0 -12   0   51.49    1.51
   0 -12   0   54.11    3.15
   0 -12   0   56.53    3.41
   0 -12   0   54.86    3.35
   0 -12   0   52.67    1.67
   0 -12   1  171.43    3.29
   0 -12   1  163.29    3.19
   0 -12   1  167.23    5.32
   0 -12   1  168.10    5.54
   0 -12   1  178.86    5.81
   0 -12   1  167.56    3.32
   0 -12   2   33.05    1.27
   0 -12   2   31.15    1.35
   0 -12   2   31.68    2.59
   0 -12   2   36.06    2.94
   0 -12   2   32.50    2.83
   0 -12   2   32.71    1.47
   0 -12   3  290.80    5.05
   0 -12   3  290.68    7.84
   0 -12   3  287.54    7.80
   0 -12   3  300.57    7.32
   0 -12   4   13.19    0.87
   0 -12   4   10.15    0.91
   0 -12   4   10.59    1.98
   0 -12   4   11.90    2.18
   0 -12   4   13.04    1.16
   0 -12   5  114.23    2.53
   0 -12   5  120.56    4.72
   0 -12   6    1.84    0.89
   0 -12   6    2.00    0.73
   0 -12   6    1.16    1.45
   0 -12   7  189.31    3.51
   0 -12   7  178.50    3.62
   0 -12   8   34.15    1.34
   0 -12   9   81.12    2.00
   0 -12  10   40.01    1.28
   0 -12  11   22.06    0.85
   0 -12  12    8.17    0.47
   0 -11 -16   14.73    0.56
   0 -11 -16   14.69    0.53
   0 -11 -16   14.41    0.57
   0 -11 -15   58.04    1.38
   0 -11 -15   57.98    1.45
   0 -11 -15   57.40    1.43
   0 -11 -14    0.63    0.78
   0 -11 -14   -0.12    0.59
   0 -11 -14    0.39    0.69
   0 -11 -14    0.59    0.62
   0 -11 -13  189.57    3.58
   0 -11 -13  201.72    3.49
   0 -11 -13  203.82    3.63
   0 -11 -13  190.71    3.61
   0 -11 -12    3.81    0.79
   0 -11 -12    3.33    0.80
   0 -11 -12    3.41    0.92
   0 -11 -11  469.78    7.59
   0 -11 -11  486.42    7.42
   0 -11 -11  472.58    7.68
   0 -11 -11  495.44    7.60
   0 -11 -10   11.40    1.02
   0 -11 -10   11.03    1.05
   0 -11 -10   10.49    1.06
   0 -11  -9   71.28    1.99
   0 -11  -9   73.78    2.08
   0 -11  -9   68.66    1.96
   0 -11  -8   33.17    1.42
   0 -11  -8   32.36    1.34
   0 -11  -7  185.20    5.40
   0 -11  -7  199.14    6.18
   0 -11  -7  185.49    3.53
   0 -11  -7  194.17    3.63
   0 -11  -6   69.28    1.83
   0 -11  -6   74.93    3.81
   0 -11  -6   71.22    3.45
   0 -11  -5  189.60    3.47
   0 -11  -5  203.28    5.59
   0 -11  -5  209.49    6.23
   0 -11  -4   25.58    1.10
   0 -11  -4   31.41    1.16
   0 -11  -4   34.60    2.72
   0 -11  -4   31.61    2.74
   0 -11  -3  199.67    3.58
   0 -11  -3  202.41    3.53
   0 -11  -3  204.25    3.73
   0 -11  -3  221.73    6.25
   0 -11  -3  218.51    5.74
   0 -11  -2  228.52    3.98
   0 -11  -2  236.21    4.13
   0 -11  -2  240.84    6.14
   0 -11  -1    9.66    0.69
   0 -11  -1   11.29    0.82
   0 -11  -1    9.28    1.91
   0 -11  -1   11.95    2.25
   0 -11   0  102.73    4.05
   0 -11   0   94.36    2.09
   0 -11   0  101.38    2.24
   0 -11   0   99.92    4.15
   0 -11   0  103.36    3.94
   0 -11   1   37.79    2.61
   0 -11   1   36.51    1.24
   0 -11   1   39.87    1.32
   0 -11   1   36.93    2.78
   0 -11   1   37.59    2.80
   0 -11   2  219.64    3.94
   0 -11   2  218.20    3.97
   0 -11   2  221.48    4.08
   0 -11   2  224.85    6.45
   0 -11   2  235.72    6.04
   0 -11   2  226.73    6.38
   0 -11   3   83.31    1.99
   0 -11   3   81.04    2.12
   0 -11   3   76.65    2.07
   0 -11   3   77.83    3.77
   0 -11   3   83.40    3.67
   0 -11   3   78.68    3.71
   0 -11   4   88.29    2.12
   0 -11   4   97.63    2.33
   0 -11   4   88.18    2.25
   0 -11   4   92.32    3.79
   0 -11   5   41.07    1.58
   0 -11   5   36.78    1.30
   0 -11   6  217.12    3.93
   0 -11   6  207.64    3.97
   0 -11   7   10.79    1.01
   0 -11   7   11.75    0.98
   0 -11   8  223.07    3.97
   0 -11   8  231.02    4.25
   0 -11   9   24.88    1.19
   0 -11  10   39.08    1.37
   0 -11  11    9.81    0.73
   0 -11  12   44.35    1.08
   0 -11  12   24.13    0.81
   0 -11  13    3.17    0.40
   0 -10 -16   55.78    1.24
   0 -10 -16   55.43    1.32
   0 -10 -15    0.87    0.76
   0 -10 -15    0.68    0.52
   0 -10 -15   -0.09    0.66
   0 -10 -15    0.65    0.60
   0 -10 -14  163.74    3.17
   0 -10 -14  175.00    3.12
   0 -10 -14  178.31    3.26
   0 -10 -14  162.24    3.23
   0 -10 -13    0.76    0.89
   0 -10 -12  205.73    3.94
   0 -10 -12  215.33    3.84
   0 -10 -12  215.79    3.99
   0 -10 -12  206.74    3.99
   0 -10 -11   41.41    1.60
   0 -10 -11   42.07    1.60
   0 -10 -11   41.16    1.54
   0 -10 -10  176.80    3.46
   0 -10 -10  174.11    3.54
   0 -10 -10  172.69    3.48
   0 -10  -9    2.12    0.80
   0 -10  -9    1.66    0.82
   0 -10  -8  153.05    3.04
   0 -10  -8  150.60    3.13
   0 -10  -8  148.27    3.05
   0 -10  -7  121.68    4.61
   0 -10  -7  124.22    4.14
   0 -10  -7  120.04    2.55
   0 -10  -6  446.91    9.63
   0 -10  -6  437.41    8.70
   0 -10  -6  418.80    6.59
   0 -10  -5  250.27    5.99
   0 -10  -5  255.78    6.68
   0 -10  -5  236.84    4.06
   0 -10  -4  122.73    4.01
   0 -10  -4  122.47    4.37
   0 -10  -4  116.67    2.34
   0 -10  -3  213.25    5.34
   0 -10  -3  220.04    5.88
   0 -10  -3  211.03    3.66
   0 -10  -2    3.01    1.53
   0 -10  -2    3.89    1.83
   0 -10  -2    4.92    0.63
   0 -10  -2    3.53    0.53
   0 -10  -2    3.55    0.61
   0 -10  -1  115.94    4.13
   0 -10  -1  108.75    3.78
   0 -10  -1  118.60    2.30
   0 -10  -1  109.20    2.15
   0 -10   0    5.99    1.93
   0 -10   0    5.17    1.63
   0 -10   0    5.90    0.66
   0 -10   0    6.07    0.58
   0 -10   1    6.37    1.85
   0 -10   1    5.36    1.62
   0 -10   1    6.47    1.46
   0 -10   1    6.10    0.61
   0 -10   1    6.17    0.66
   0 -10   2   11.13    1.04
   0 -10   2   11.31    2.03
   0 -10   2   11.50    1.70
   0 -10   2   10.13    0.73
   0 -10   2   11.25    0.77
   0 -10   3  281.61    4.72
   0 -10   3  288.61    4.82
   0 -10   3  283.96    4.68
   0 -10   3  283.07    4.87
   0 -10   3  284.52    6.61
   0 -10   3  284.77    7.13
   0 -10   4   55.57    3.01
   0 -10   4   62.23    3.26
   0 -10   4   59.76    1.72
   0 -10   4   64.23    1.67
   0 -10   4   60.23    1.77
   0 -10   4   63.35    1.83
   0 -10   5  148.38    3.15
   0 -10   5  153.08    2.92
   0 -10   5  144.14    2.91
   0 -10   5  156.04    3.16
   0 -10   5  158.47    3.14
   0 -10   6    4.83    0.88
   0 -10   6    4.74    0.93
   0 -10   6    4.56    0.66
   0 -10   6    5.54    0.83
   0 -10   6    5.22    0.92
   0 -10   7  129.18    2.59
   0 -10   7  122.38    2.59
   0 -10   8    2.24    0.77
   0 -10   8    2.96    0.79
   0 -10   9  102.35    2.48
   0 -10  10    1.72    0.72
   0 -10  11   37.26    1.30
   0 -10  11   39.51    1.40
   0 -10  12    4.53    0.61
   0 -10  13   35.01    1.02
   0  -9 -17   23.53    0.66
   0  -9 -17   24.32    0.72
   0  -9 -16    3.23    0.50
   0  -9 -16    2.58    0.61
   0  -9 -16    2.99    0.57
   0  -9 -16    3.74    0.72
   0  -9 -15   83.83    1.90
   0  -9 -15   88.68    1.95
   0  -9 -15   83.33    2.00
   0  -9 -15   86.31    2.00
   0  -9 -14    1.71    0.87
   0  -9 -14    1.12    0.91
   0  -9 -13  187.16    3.63
   0  -9 -13  190.27    3.53
   0  -9 -13  198.08    3.68
   0  -9 -13  184.11    3.64
   0  -9 -12  120.48    2.77
   0  -9 -12  127.38    2.73
   0  -9 -12  128.86    2.82
   0  -9 -12  122.78    2.81
   0  -9 -11    7.88    1.05
   0  -9 -11    8.51    0.99
   0  -9 -11    9.03    0.98
   0  -9 -10  128.51    2.88
   0  -9 -10  131.66    2.85
   0  -9  -9    7.29    0.97
   0  -9  -9    7.82    0.92
   0  -9  -9    7.53    0.88
   0  -9  -8   13.31    0.93
   0  -9  -8   14.17    0.98
   0  -9  -8   11.02    0.98
   0  -9  -7  425.63    6.63
   0  -9  -7  438.17    8.40
   0  -9  -7  426.47    9.28
   0  -9  -6  162.48    2.99
   0  -9  -6  165.55    5.06
   0  -9  -6  161.59    4.46
   0  -9  -5  278.94    4.55
   0  -9  -5  292.77    6.92
   0  -9  -5  286.02    6.18
   0  -9  -4    4.87    0.68
   0  -9  -4    5.58    1.68
   0  -9  -4    5.00    1.50
   0  -9  -3  109.05    2.12
   0  -9  -3  106.73    3.44
   0  -9  -3  114.91    3.90
   0  -9  -2   61.06    1.42
   0  -9  -2   69.98    3.01
   0  -9  -1  159.67    2.78
   0  -9  -1  170.69    2.91
   0  -9   0   30.58    0.95
   0  -9   0   29.40    2.15
   0  -9   1  513.32    7.58
   0  -9   1  510.62    9.83
   0  -9   1  519.21    7.59
   0  -9   2  542.64    9.71
   0  -9   2  548.12   10.44
   0  -9   2  526.49    8.01
   0  -9   2  535.78    7.98
   0  -9   3   15.59    1.78
   0  -9   3   16.02    1.97
   0  -9   3   15.34    1.01
   0  -9   3   16.17    0.91
   0  -9   3   19.41    1.02
   0  -9   4  310.06    5.13
   0  -9   4  298.23    7.29
   0  -9   4  292.50    6.59
   0  -9   4  295.43    4.86
   0  -9   4  302.94    5.10
   0  -9   4  306.82    5.02
   0  -9   5    0.16    0.62
   0  -9   5    0.84    0.70
   0  -9   5    0.59    0.83
   0  -9   5    0.38    0.63
   0  -9   5    0.06    0.75
   0  -9   6  170.87    3.32
   0  -9   6  169.92    3.31
   0  -9   6  159.03    3.03
   0  -9   6  168.39    3.35
   0  -9   6  173.15    3.27
   0  -9   7    0.63    0.83
   0  -9   7    0.40    0.72
   0  -9   7    0.29    0.78
   0  -9   7    0.22    0.63
   0  -9   7    0.06    0.75
   0  -9   7    0.26    0.66
   0  -9   8  252.13    4.43
   0  -9   8  230.97    4.37
   0  -9   8  256.33    4.41
   0  -9   8  231.12    4.14
   0  -9   9    9.95    0.89
   0  -9   9   10.63    0.94
   0  -9   9   12.73    1.00
   0  -9   9   11.98    0.89
   0  -9  10    4.12    0.81
   0  -9  10    2.72    0.65
   0  -9  11    0.82    0.67
   0  -9  11    0.63    0.69
   0  -9  12   46.17    1.43
   0  -9  13    0.56    0.50
   0  -9  14   40.29    1.07
   0  -8 -17   29.87    0.81
   0  -8 -17   28.33    0.74
   0  -8 -17   30.39    0.89
   0  -8 -16   31.33    1.11
   0  -8 -16   32.89    1.13
   0  -8 -16   30.44    1.00
   0  -8 -16   31.96    1.05
   0  -8 -16   30.13    1.12
   0  -8 -15   17.32    0.92
   0  -8 -15   20.63    1.09
   0  -8 -15   16.55    1.01
   0  -8 -15   19.46    1.11
   0  -8 -14   67.32    1.84
   0  -8 -14   68.75    1.96
   0  -8 -13    0.11    0.72
   0  -8 -13    0.41    0.78
   0  -8 -13    0.37    0.92
   0  -8 -13    0.52    1.02
   0  -8 -12  174.05    3.50
   0  -8 -12  173.55    3.42
   0  -8 -12  168.38    3.51
   0  -8 -11  188.79    3.66
   0  -8 -11  185.33    3.68
   0  -8 -10   10.17    0.95
   0  -8 -10   10.03    1.07
   0  -8 -10   11.21    0.97
   0  -8  -9   16.21    0.99
   0  -8  -9   18.84    1.13
   0  -8  -9   16.14    1.02
   0  -8  -8   66.53    1.75
   0  -8  -8   69.36    1.78
   0  -8  -8   67.83    1.80
   0  -8  -7    2.81    0.77
   0  -8  -7    2.56    1.44
   0  -8  -7    2.62    0.65
   0  -8  -6  663.83   11.93
   0  -8  -6  642.98    9.39
   0  -8  -5  236.39    5.81
   0  -8  -5  237.87    3.85
   0  -8  -4  247.25    3.94
   0  -8  -3  121.07    2.20
   0  -8  -2    8.48    0.63
   0  -8  -1  173.58    4.45
   0  -8  -1  154.06    2.60
   0  -8   0  308.35    5.01
   0  -8   0  401.16    5.28
   0  -8   1  240.77    3.96
   0  -8   1  302.10    4.22
   0  -8   2   66.47    2.74
   0  -8   2   61.67    1.44
   0  -8   3   85.44    3.23
   0  -8   3   85.29    1.89
   0  -8   3   79.90    1.77
   0  -8   4   98.75    2.05
   0  -8   4  104.06    2.21
   0  -8   4  102.19    3.70
   0  -8   5  333.41    5.43
   0  -8   5  346.05    5.45
   0  -8   5  337.68    5.48
   0  -8   5  345.26    5.36
   0  -8   6   15.17    0.91
   0  -8   6   15.56    1.01
   0  -8   6   13.94    0.95
   0  -8   6   13.54    0.94
   0  -8   6   14.90    0.94
   0  -8   7  257.71    4.58
   0  -8   7  240.81    4.12
   0  -8   7  268.53    4.47
   0  -8   7  263.80    4.47
   0  -8   7  246.20    4.27
   0  -8   8   19.83    1.14
   0  -8   8   21.04    1.07
   0  -8   9  137.14    2.89
   0  -8   9  140.07    2.89
   0  -8  10   16.39    1.01
   0  -8  10   17.49    1.10
   0  -8  10   16.68    0.99
   0  -8  11   84.19    2.22
   0  -8  11   77.09    1.93
   0  -8  12    0.71    0.67
   0  -8  13   77.50    1.90
   0  -8  13  106.42    2.12
   0  -8  14    0.35    0.41
   0  -8  14    1.88    0.50
   0  -7 -18   27.74    0.66
   0  -7 -17   11.44    0.54
   0  -7 -17   12.63    0.62
   0  -7 -17   13.77    0.72
   0  -7 -17   12.90    0.69
   0  -7 -16    9.80    0.80
   0  -7 -16   11.00    0.90
   0  -7 -16   10.63    0.74
   0  -7 -16    9.96    0.68
   0  -7 -16   10.92    0.85
   0  -7 -16   10.79    0.82
   0  -7 -15   49.16    1.54
   0  -7 -15   47.00    1.42
   0  -7 -15   47.22    1.51
   0  -7 -14   32.13    1.30
   0  -7 -14   35.38    1.45
   0  -7 -14   32.08    1.41
   0  -7 -13  191.96    3.72
   0  -7 -13  188.60    3.62
   0  -7 -13  182.73    3.68
   0  -7 -12   23.22    1.24
   0  -7 -12   26.30    1.45
   0  -7 -12   27.63    1.37
   0  -7 -12   25.84    1.28
   0  -7 -11  104.78    2.49
   0  -7 -11  104.77    2.46
   0  -7 -10  121.13    2.68
   0  -7 -10  121.59    2.66
   0  -7  -9  390.10    6.29
   0  -7  -9  382.16    6.22
   0  -7  -8    0.55    0.62
   0  -7  -8    1.28    0.61
   0  -7  -7  202.39    4.68
   0  -7  -7  221.49    3.67
   0  -7  -6   26.04    1.85
   0  -7  -6   27.95    1.03
   0  -7  -5  352.29    6.36
   0  -7  -5  331.56    6.98
   0  -7  -5  336.70    5.15
   0  -7  -4  163.79    2.76
   0  -7  -4  166.45    4.31
   0  -7  -3  219.50    3.47
   0  -7  -3  225.99    5.08
   0  -7  -2  943.54   13.20
   0  -7  -2 1020.29   15.21
   0  -7  -1  320.34    4.76
   0  -7  -1  350.69    6.56
   0  -7   0  270.50    4.13
   0  -7   1  781.15   10.97
   0  -7   2 1030.02   14.34
   0  -7   3  296.95    4.58
   0  -7   3  297.43    4.67
   0  -7   4 1058.97   14.85
   0  -7   4 1061.26   17.12
   0  -7   4 1021.80   15.93
   0  -7   5    1.30    0.57
   0  -7   5    2.41    1.42
   0  -7   6  247.73    4.15
   0  -7   6  250.16    4.11
   0  -7   6  238.88    4.19
   0  -7   6  251.79    4.03
   0  -7   7   39.44    1.42
   0  -7   7   37.01    1.21
   0  -7   7   42.83    1.37
   0  -7   7   40.44    1.32
   0  -7   7   37.03    1.22
   0  -7   8  367.07    5.83
   0  -7   8  366.02    6.03
   0  -7   8  351.55    5.86
   0  -7   9    3.46    0.81
   0  -7   9    5.42    0.84
   0  -7   9    3.76    0.71
   0  -7  10  271.61    4.65
   0  -7  10  270.02    4.69
   0  -7  11   32.22    1.39
   0  -7  11   22.58    1.09
   0  -7  12  125.60    2.76
   0  -7  13    0.63    0.63
   0  -7  14   77.51    1.74
   0  -7  14   58.22    1.59
   0  -7  15    2.25    0.43
   0  -7  15    1.33    0.40
   0  -6 -18    6.02    0.40
   0  -6 -18    6.75    0.46
   0  -6 -17   29.97    0.90
   0  -6 -17   32.15    1.03
   0  -6 -17   30.42    1.01
   0  -6 -16   46.61    1.42
   0  -6 -16   48.60    1.39
   0  -6 -16   45.71    1.32
   0  -6 -16   44.08    1.28
   0  -6 -16   48.41    1.41
   0  -6 -16   47.66    1.39
   0  -6 -15    2.63    0.86
   0  -6 -14  214.77    3.94
   0  -6 -14  216.65    4.02
   0  -6 -14  217.82    4.19
   0  -6 -13   43.33    1.56
   0  -6 -13   45.88    1.69
   0  -6 -12   99.23    2.41
   0  -6 -12   98.33    2.40
   0  -6 -12  102.22    2.42
   0  -6 -11   46.72    1.57
   0  -6 -11   46.06    1.54
   0  -6 -10  201.06    3.72
   0  -6 -10  198.90    3.68
   0  -6  -9   15.37    0.93
   0  -6  -9   15.50    0.91
   0  -6  -8  218.87    3.73
   0  -6  -8  210.08    3.46
   0  -6  -8  215.43    3.68
   0  -6  -7   85.72    1.67
   0  -6  -7   82.22    2.57
   0  -6  -6  700.86    9.81
   0  -6  -6  720.65   11.89
   0  -6  -5  101.24    3.18
   0  -6  -4 1309.22   18.06
   0  -6  -4 1353.60   19.84
   0  -6  -3  394.50    7.16
   0  -6  -3  392.97    5.69
   0  -6  -2  177.77    4.08
   0  -6  -1  518.25    8.75
   0  -6   2    7.01    1.19
   0  -6   2    5.44    0.47
   0  -6   3  321.44    6.46
   0  -6   3  310.13    4.83
   0  -6   4  408.78    7.21
   0  -6   4  436.44    6.44
   0  -6   5   44.53    1.99
   0  -6   5   45.20    1.30
   0  -6   6  171.98    3.18
   0  -6   7  228.18    3.79
   0  -6   7  223.03    3.86
   0  -6   8    1.19    0.69
   0  -6   8    0.92    0.68
   0  -6   8    0.82    0.58
   0  -6   9  248.61    4.23
   0  -6   9  255.77    4.50
   0  -6  10   78.49    1.94
   0  -6  10   77.53    2.12
   0  -6  10   75.50    1.96
   0  -6  11  298.07    5.18
   0  -6  11  301.11    5.30
   0  -6  12   19.85    1.13
   0  -6  12   15.71    0.93
   0  -6  13  155.71    3.12
   0  -6  14   19.38    0.98
   0  -6  15   93.54    1.92
   0  -6  15   77.04    1.75
   0  -6  16    2.92    0.39
   0  -5 -18   10.02    0.51
   0  -5 -18   11.36    0.58
   0  -5 -17   19.87    0.77
   0  -5 -17   21.60    0.94
   0  -5 -17   21.12    0.89
   0  -5 -16   65.99    1.74
   0  -5 -16   69.20    1.67
   0  -5 -16   68.51    1.71
   0  -5 -16   61.84    1.56
   0  -5 -16   64.52    1.62
   0  -5 -16   69.09    1.69
   0  -5 -15   92.50    2.29
   0  -5 -15   98.92    2.25
   0  -5 -14  146.24    2.98
   0  -5 -14  139.06    2.97
   0  -5 -14  141.42    3.14
   0  -5 -13  227.75    4.13
   0  -5 -13  233.05    4.41
   0  -5 -13  232.56    4.24
   0  -5 -12   18.07    1.12
   0  -5 -12   17.64    1.29
   0  -5 -12   19.37    1.14
   0  -5 -11  129.73    2.74
   0  -5 -11  130.90    2.73
   0  -5 -10   77.71    1.95
   0  -5 -10   78.63    1.93
   0  -5  -9  401.48    6.26
   0  -5  -9  397.16    6.22
   0  -5  -8   23.07    0.77
   0  -5  -7  767.75   10.65
   0  -5  -7  732.82   11.43
   0  -5  -6   35.12    0.89
   0  -5  -6   33.97    1.72
   0  -5  -5  253.82    5.28
   0  -5  -4    4.22    1.17
   0  -5  -3  657.49   10.44
   0  -5  -2    4.76    1.17
   0  -5  -1  111.39    2.84
   0  -5   2    6.03    1.11
   0  -5   3  890.26   12.04
   0  -5   3  866.68   13.54
   0  -5   4   52.24    1.27
   0  -5   4   52.27    2.27
   0  -5   4   49.10    1.92
   0  -5   5   21.04    0.89
   0  -5   5   20.76    1.44
   0  -5   6  706.14   10.27
   0  -5   7   31.26    1.16
   0  -5   8  456.95    7.14
   0  -5   8  475.85    7.27
   0  -5   9   31.88    1.15
   0  -5   9   28.81    1.25
   0  -5   9   31.33    1.19
   0  -5  10  141.00    3.01
   0  -5  10  136.42    2.84
   0  -5  11   23.83    1.13
   0  -5  12  174.02    3.42
   0  -5  12  192.16    3.67
   0  -5  13    6.59    0.83
   0  -5  14   82.98    2.06
   0  -5  15    5.77    0.70
   0  -5  15    2.57    0.59
   0  -5  16   44.28    1.13
   0  -4 -18   23.95    0.74
   0  -4 -18   26.18    0.80
   0  -4 -17   50.24    1.22
   0  -4 -17   52.24    1.37
   0  -4 -16   20.70    1.02
   0  -4 -16   18.72    1.02
   0  -4 -16   18.19    0.86
   0  -4 -16   18.63    0.91
   0  -4 -16   18.51    1.09
   0  -4 -16   16.66    0.95
   0  -4 -15   76.62    1.96
   0  -4 -15   80.64    2.11
   0  -4 -14   30.87    1.38
   0  -4 -14   32.91    1.30
   0  -4 -14   35.17    1.48
   0  -4 -13  125.44    2.72
   0  -4 -13  124.37    2.74
   0  -4 -13  126.68    2.92
   0  -4 -12   70.03    1.90
   0  -4 -12   64.42    1.87
   0  -4 -11   95.60    2.28
   0  -4 -11  100.25    2.30
   0  -4 -11   96.95    2.30
   0  -4 -10  433.26    6.82
   0  -4 -10  438.20    6.80
   0  -4  -9   42.13    1.31
   0  -4  -9   42.83    1.30
   0  -4  -8    5.99    0.46
   0  -4  -7   63.65    1.30
   0  -4  -6  466.85    7.30
   0  -4  -5  280.33    5.43
   0  -4  -4 1748.67   24.96
   0  -4  -3   22.96    1.39
   0  -4  -2  780.84   11.69
   0  -4   2  162.76    3.49
   0  -4   3  283.15    5.40
   0  -4   4   23.39    1.35
   0  -4   4   26.28    0.85
   0  -4   5   21.58    1.29
   0  -4   5   21.07    0.84
   0  -4   6  101.57    2.05
   0  -4   7  733.84   10.65
   0  -4   8  327.15    5.31
   0  -4   9  242.44    4.21
   0  -4   9  250.79    4.35
   0  -4  10  155.11    3.07
   0  -4  10  158.43    3.23
   0  -4  11   75.43    2.06
   0  -4  11   71.22    1.90
   0  -4  12   10.31    0.94
   0  -4  12   12.07    0.89
   0  -4  13   75.59    2.05
   0  -4  14    2.84    0.77
   0  -4  15  110.13    2.42
   0  -4  16    0.95    0.49
   0  -4  16    0.73    0.49
   0  -4  17   23.20    0.75
   0  -3 -18   54.95    1.18
   0  -3 -17   20.03    0.76
   0  -3 -17   21.03    0.90
   0  -3 -17   21.63    1.00
   0  -3 -16   50.85    1.42
   0  -3 -16   55.97    1.58
   0  -3 -16   53.12    1.55
   0  -3 -15   19.35    1.01
   0  -3 -15   18.51    0.97
   0  -3 -15   18.49    1.17
   0  -3 -15   19.99    1.12
   0  -3 -15   16.09    1.06
   0  -3 -14   84.93    2.10
   0  -3 -14   86.83    2.27
   0  -3 -14   79.29    2.05
   0  -3 -13  148.61    3.04
   0  -3 -13  158.79    3.34
   0  -3 -13  155.59    3.13
   0  -3 -12   98.84    2.29
   0  -3 -12   96.57    2.44
   0  -3 -12   97.57    2.30
   0  -3 -11  250.50    4.30
   0  -3 -11  261.60    4.45
   0  -3 -10   22.53    1.04
   0  -3 -10   20.93    1.12
   0  -3 -10   22.96    1.06
   0  -3  -6    5.17    0.95
   0  -3  -5   51.10    1.52
   0  -3  -4   47.22    1.75
   0  -3  -3  330.92    5.57
   0  -3  -2  265.41    4.53
   0  -3  -1   49.89    1.55
   0  -3   2  444.12    7.10
   0  -3   3  153.68    3.37
   0  -3   4 1220.50   16.95
   0  -3   5  236.03    3.77
   0  -3   5  245.68    3.91
   0  -3   6  161.48    2.80
   0  -3   7  507.04    7.53
   0  -3   8  223.24    3.84
   0  -3   9   88.76    2.01
   0  -3   9   81.38    2.01
   0  -3  10   97.16    2.23
   0  -3  10  104.96    2.36
   0  -3  10  101.71    2.31
   0  -3  11   21.23    1.09
   0  -3  11   27.17    1.25
   0  -3  12  114.92    2.55
   0  -3  13   15.03    0.93
   0  -3  13   15.01    1.05
   0  -3  14   73.55    2.02
   0  -3  15    3.52    0.72
   0  -3  15    4.21    0.76
   0  -3  16   52.36    1.42
   0  -3  17    0.21    0.36
   0  -2 -18    0.42    0.48
   0  -2 -18    0.31    0.50
   0  -2 -17   47.93    1.32
   0  -2 -17   49.94    1.35
   0  -2 -16   15.93    0.95
   0  -2 -16   14.99    1.05
   0  -2 -16   15.53    0.82
   0  -2 -15   27.63    1.21
   0  -2 -15   29.96    1.29
   0  -2 -15   28.74    1.33
   0  -2 -15   27.21    1.14
   0  -2 -15   27.95    1.13
   0  -2 -14  120.86    2.62
   0  -2 -14  122.52    2.62
   0  -2 -14  126.86    2.83
   0  -2 -14  115.75    2.55
   0  -2 -13   36.75    1.37
   0  -2 -13   37.21    1.52
   0  -2 -13   36.28    1.45
   0  -2 -12  186.31    3.50
   0  -2 -12  189.84    3.69
   0  -2 -11   26.75    1.12
   0  -2 -11   25.22    1.22
   0  -2 -11   25.46    1.22
   0  -2 -10  306.16    4.87
   0  -2 -10  286.59    4.70
   0  -2  -8  478.07    7.93
   0  -2  -7   60.13    1.84
   0  -2  -6  842.20   11.11
   0  -2  -6  720.59   10.16
   0  -2  -5  124.52    2.55
   0  -2  -5  139.17    2.32
   0  -2  -3 2047.73   28.29
   0  -2  -2   54.24    1.47
   0  -2  -1   11.51    0.73
   0  -2   2  179.69    3.31
   0  -2   4  734.13   10.22
   0  -2   5   80.38    1.41
   0  -2   6   46.75    1.17
   0  -2   7  320.43    4.98
   0  -2   8  200.35    3.49
   0  -2   9  185.87    3.34
   0  -2   9  187.96    3.46
   0  -2  10  247.00    4.29
   0  -2  10  250.38    4.36
   0  -2  10  251.80    4.30
   0  -2  11  281.25    4.73
   0  -2  11  276.34    4.77
   0  -2  12  142.88    2.95
   0  -2  13  279.33    4.76
   0  -2  13  244.39    4.49
   0  -2  14   32.04    1.37
   0  -2  15  127.84    2.75
   0  -2  15  121.27    2.67
   0  -2  16    3.93    0.65
   0  -2  17   46.88    1.19
   0  -1 -18   38.34    0.95
   0  -1 -18   40.01    0.95
   0  -1 -17   16.58    0.81
   0  -1 -17   17.08    0.90
   0  -1 -16   40.71    1.21
   0  -1 -16   43.75    1.39
   0  -1 -16   44.29    1.42
   0  -1 -15   42.47    1.37
   0  -1 -15   41.76    1.51
   0  -1 -15   44.69    1.53
   0  -1 -14  111.71    2.51
   0  -1 -14  114.21    2.51
   0  -1 -14  117.23    2.62
   0  -1 -14  115.06    2.47
   0  -1 -14  114.84    2.69
   0  -1 -13   52.12    1.65
   0  -1 -13   55.80    1.68
   0  -1 -13   55.72    1.66
   0  -1 -12    4.04    0.74
   0  -1 -12    4.37    0.87
   0  -1 -12    3.80    0.95
   0  -1 -11   61.12    1.80
   0  -1 -11   61.77    1.66
   0  -1 -11   57.48    1.62
   0  -1 -10  147.41    2.94
   0  -1 -10  145.42    2.71
   0  -1 -10  145.30    2.78
   0  -1  -8  122.00    3.02
   0  -1  -7  930.39   13.83
   0  -1  -6    5.85    0.75
   0  -1  -5  480.41    7.32
   0  -1  -4   49.81    1.29
   0  -1  -4   53.46    0.99
   0  -1  -3  365.18    5.38
   0  -1  -2    0.97    0.32
   0  -1  -2    1.81    0.65
   0  -1  -1  935.22   12.85
   0  -1   1 1532.92   20.92
   0  -1   3  672.01    9.17
   0  -1   6   13.57    0.66
   0  -1   7  549.67    8.01
   0  -1   8  320.51    5.10
   0  -1   8  324.66    5.06
   0  -1   9  318.31    5.12
   0  -1  10  669.44    9.77
   0  -1  10  668.43    9.79
   0  -1  11    6.99    0.86
   0  -1  11    5.56    0.77
   0  -1  11    6.59    0.77
   0  -1  12  206.13    3.83
   0  -1  12  210.94    3.94
   0  -1  12  203.71    3.82
   0  -1  13   33.81    1.36
   0  -1  13   35.73    1.35
   0  -1  14  130.48    2.92
   0  -1  15    2.49    0.75
   0  -1  16   75.57    1.85
   0  -1  17    0.91    0.47
   0   0 -18    0.31    0.43
   0   0 -18    0.36    0.46
   0   0 -17   64.56    1.49
   0   0 -16    2.38    0.83
   0   0 -16    3.04    0.66
   0   0 -15   23.07    1.15
   0   0 -14  106.33    2.37
   0   0 -14  104.97    2.45
   0   0 -14  109.43    2.56
   0   0 -13  225.99    3.97
   0   0 -13  228.94    4.11
   0   0 -13  228.28    4.10
   0   0 -13  229.14    4.12
   0   0 -13  231.17    4.29
   0   0 -12    5.73    0.89
   0   0 -12    4.99    0.94
   0   0 -12    4.77    0.76
   0   0 -12    5.41    0.75
   0   0 -11   67.26    1.74
   0   0 -11   71.33    1.79
   0   0 -11   72.15    1.94
   0   0 -10   35.60    1.24
   0   0 -10   40.37    1.24
   0   0 -10   42.44    1.39
   0   0 -10   31.85    1.82
   0   0  -8  127.99    3.18
   0   0  -7  209.93    4.12
   0   0  -6  480.78    7.58
   0   0  -5  123.97    2.52
   0   0  -4   64.99    1.54
   0   0  -3  566.98    8.11
   0   0  -2 1097.64   14.99
   0   0  -1  317.52    4.41
   0   0   6  542.06    7.76
   0   0   7  227.54    3.63
   0   0   8  140.71    2.56
   0   0   9   77.65    1.75
   0   0   9   71.09    1.74
   0   0  10   42.16    1.30
   0   0  10   37.53    1.28
   0   0  10   41.99    1.36
   0   0  10   35.60    1.34
   0   0  11   75.60    1.96
   0   0  11   79.34    1.99
   0   0  12    5.42    0.76
   0   0  12    4.90    0.81
   0   0  12    5.01    0.81
   0   0  13  237.88    4.38
   0   0  13  244.09    4.37
   0   0  14  116.41    2.70
   0   0  15   25.49    1.21
   0   0  16    2.59    0.66
   0   0  17   75.32    1.68
   0   1 -18   49.52    0.98
   0   1 -18   40.99    0.87
   0   1 -17    0.16    0.61
   0   1 -17    0.17    0.68
   0   1 -16   65.03    1.63
   0   1 -14  110.29    2.57
   0   1 -14  105.91    2.34
   0   1 -14  109.41    2.46
   0   1 -13   38.09    1.49
   0   1 -13   35.74    1.50
   0   1 -13   35.39    1.32
   0   1 -12  191.86    3.52
   0   1 -12  191.84    3.51
   0   1 -12  197.53    3.72
   0   1 -12  184.12    3.36
   0   1 -12  188.71    3.52
   0   1 -11    5.74    0.88
   0   1 -11    7.28    0.85
   0   1 -11    7.10    0.78
   0   1 -11    6.63    0.73
   0   1 -10  577.57    8.57
   0   1 -10  603.86    8.94
   0   1 -10  582.44   10.40
   0   1 -10  590.47    8.75
   0   1 -10  596.53    8.76
   0   1  -9  280.02    5.72
   0   1  -7  485.65    8.02
   0   1  -6   11.87    0.95
   0   1  -5  532.93    8.19
   0   1  -4  566.81    8.44
   0   1  -3  634.07    9.13
   0   1  -2  220.16    3.42
   0   1   0   10.65    0.34
   0   1   6    5.69    0.48
   0   1   7  904.32   12.62
   0   1   8  130.77    2.40
   0   1   9  324.31    5.07
   0   1   9  316.59    5.07
   0   1  10  153.49    2.93
   0   1  10  144.11    2.87
   0   1  10  140.91    2.79
   0   1  10  154.14    2.89
   0   1  11   62.16    1.75
   0   1  11   59.96    1.79
   0   1  11   62.14    1.70
   0   1  11   62.32    1.77
   0   1  12    3.50    0.79
   0   1  12    3.36    0.71
   0   1  12    3.95    0.80
   0   1  13   54.64    1.66
   0   1  13   55.86    1.70
   0   1  13   56.88    1.78
   0   1  13   55.26    1.79
   0   1  14  139.40    3.03
   0   1  15   46.55    1.57
   0   1  16   52.04    1.54
   0   1  17   18.45    0.84
   0   2 -18    1.38    0.35
   0   2 -17   43.09    1.08
   0   2 -17   45.29    1.19
   0   2 -16    3.99    0.75
   0   2 -15  102.43    2.24
   0   2 -14   27.70    1.30
   0   2 -14   30.05    1.30
   0   2 -13  237.37    4.19
   0   2 -13  232.93    4.13
   0   2 -13  242.16    4.39
   0   2 -12  131.64    2.71
   0   2 -12  135.33    2.78
   0   2 -12  134.94    2.91
   0   2 -11  242.81    4.19
   0   2 -11  248.66    4.38
   0   2 -11  245.26    4.18
   0   2 -11  234.72    5.80
   0   2 -10  209.57    3.63
   0   2 -10  230.43    3.82
   0   2 -10  227.36    3.82
   0   2 -10  231.30    3.98
   0   2 -10  203.99    5.12
   0   2  -9  171.87    3.14
   0   2  -9  166.99    4.17
   0   2  -7  283.48    5.42
   0   2  -6   40.79    1.66
   0   2  -5   86.18    2.22
   0   2  -4  653.00    9.76
   0   2  -3   57.07    1.52
   0   2   0  673.87    9.47
   0   2   6  870.51   12.08
   0   2   7   62.63    1.39
   0   2   8  519.52    7.63
   0   2   9   67.64    1.63
   0   2   9   64.28    1.63
   0   2  10  285.45    4.76
   0   2  10  300.30    4.86
   0   2  10  286.21    4.78
   0   2  11   23.81    1.06
   0   2  11   27.99    1.20
   0   2  11   26.72    1.29
   0   2  11   25.22    1.21
   0   2  12  179.71    3.49
   0   2  12  172.41    3.43
   0   2  12  193.08    3.62
   0   2  12  184.10    3.58
   0   2  12  185.45    3.54
   0   2  13   35.58    1.36
   0   2  13   40.00    1.48
   0   2  13   37.15    1.39
   0   2  14  120.52    2.66
   0   2  14  135.77    2.89
   0   2  15   34.69    1.37
   0   2  16   16.35    0.94
   0   2  17   54.87    1.42
   0   3 -17    0.22    0.57
   0   3 -17    0.54    0.56
   0   3 -17    0.67    0.40
   0   3 -16   45.83    1.37
   0   3 -16   44.07    1.23
   0   3 -15    2.57    0.81
   0   3 -14   60.66    1.72
   0   3 -13   14.86    1.04
   0   3 -13   13.55    1.10
   0   3 -12  111.55    2.54
   0   3 -12  106.58    2.40
   0   3 -12  105.69    2.31
   0   3 -11   19.88    1.11
   0   3 -11   22.53    1.18
   0   3 -11   23.26    1.86
   0   3 -11   19.80    0.99
   0   3 -10   90.10    2.12
   0   3 -10   88.10    1.99
   0   3 -10   84.55    3.07
   0   3 -10   86.48    1.95
   0   3  -9   64.98    2.60
   0   3  -9   73.36    1.73
   0   3  -8  188.91    4.39
   0   3  -6  139.91    3.33
   0   3  -5  231.46    4.43
   0   3  -4 1090.72   15.81
   0   3  -3  129.10    2.71
   0   3  -1  541.62    8.00
   0   3   0  516.47    7.61
   0   3   6    8.17    0.56
   0   3   7  895.92   12.58
   0   3   8    2.84    0.60
   0   3   9  416.73    6.39
   0   3   9  418.14    6.44
   0   3  10   21.54    1.08
   0   3  10   19.67    0.96
   0   3  10   23.70    1.05
   0   3  10   21.28    1.12
   0   3  11  261.46    4.43
   0   3  11  255.37    4.41
   0   3  12   89.60    2.22
   0   3  12   92.36    2.30
   0   3  13  150.01    3.12
   0   3  13  163.06    3.27
   0   3  13  158.07    3.29
   0   3  13  149.06    3.10
   0   3  14   79.79    2.05
   0   3  14   92.28    2.26
   0   3  15   19.99    1.08
   0   3  16   61.37    1.66
   0   4 -17   39.06    0.96
   0   4 -17   39.35    0.94
   0   4 -17   37.70    0.85
   0   4 -16    0.94    0.73
   0   4 -16    1.77    0.73
   0   4 -16    0.91    0.55
   0   4 -15   90.23    2.05
   0   4 -15   85.30    1.86
   0   4 -13   50.35    2.78
   0   4 -13   63.76    1.76
   0   4 -12    8.98    1.45
   0   4 -12   10.80    1.05
   0   4 -11   65.73    1.84
   0   4 -11   63.24    1.75
   0   4 -10  132.17    2.64
   0   4 -10  125.94    4.00
   0   4  -9  215.49    3.78
   0   4  -9  210.16    3.60
   0   4  -9  213.57    5.12
   0   4  -9  208.85    3.59
   0   4  -8  279.52    5.85
   0   4  -8  270.95    4.30
   0   4  -7  649.08   10.86
   0   4  -5   18.97    1.29
   0   4  -4   21.32    1.25
   0   4  -3  229.38    4.22
   0   4  -1  160.64    3.08
   0   4   0  375.45    5.96
   0   4   6  434.02    6.30
   0   4   7   58.96    1.33
   0   4   8    5.79    0.58
   0   4   9   41.46    1.35
   0   4   9   42.72    1.26
   0   4   9   41.90    1.34
   0   4  10  429.59    6.55
   0   4  10  426.77    6.55
   0   4  10  419.19    6.62
   0   4  11   99.92    2.27
   0   4  11   95.39    2.32
   0   4  12   64.10    1.79
   0   4  12   65.36    1.86
   0   4  12   67.60    1.98
   0   4  13  112.30    2.59
   0   4  13  120.35    2.80
   0   4  13  115.26    2.64
   0   4  14   30.93    1.24
   0   4  14   33.21    1.34
   0   4  14   30.25    1.49
   0   4  15   89.61    2.18
   0   4  16   21.32    1.00
   0   5 -17    1.75    0.39
   0   5 -17    1.72    0.38
   0   5 -16   43.95    1.11
   0   5 -16   47.07    1.22
   0   5 -16   48.18    1.22
   0   5 -15    3.59    0.86
   0   5 -15    3.77    0.65
   0   5 -14   64.70    1.61
   0   5 -13    4.76    0.88
   0   5 -12  145.98    4.73
   0   5 -12  154.91    2.98
   0   5 -11   17.30    1.74
   0   5 -11   18.56    1.14
   0   5 -10  110.96    3.80
   0   5 -10  115.46    2.39
   0   5  -9   23.23    1.79
   0   5  -9   27.28    1.13
   0   5  -8  402.50    7.74
   0   5  -8  384.57    5.87
   0   5  -7   25.52    1.66
   0   5  -6  669.78   11.08
   0   5  -4   45.11    1.79
   0   5  -3  708.10   10.90
   0   5  -1  326.11    5.57
   0   5   0   73.05    1.98
   0   5   1  103.42    2.47
   0   5   5  217.24    3.36
   0   5   6   31.02    0.90
   0   5   7  715.02   10.18
   0   5   8   21.46    1.00
   0   5   8   22.29    0.88
   0   5   9  388.32    5.83
   0   5   9  375.26    5.77
   0   5   9  388.49    5.92
   0   5  10   76.12    1.95
   0   5  10   77.11    1.87
   0   5  10   74.85    1.95
   0   5  11  115.07    2.56
   0   5  11  122.16    2.66
   0   5  11  118.37    2.56
   0   5  11  123.89    2.71
   0   5  12   16.50    0.99
   0   5  12   16.55    1.26
   0   5  13  202.87    3.93
   0   5  13  239.40    4.14
   0   5  13  231.26    4.15
   0   5  13  199.24    3.94
   0   5  14  127.75    2.76
   0   5  14  122.42    2.72
   0   5  15  101.01    2.32
   0   6 -16    8.84    0.47
   0   6 -16    9.36    0.63
   0   6 -16    9.92    0.68
   0   6 -15   76.88    1.73
   0   6 -15   77.48    1.70
   0   6 -14   14.45    0.88
   0   6 -14   15.95    1.06
   0   6 -12   15.07    1.20
   0   6 -12   13.98    1.00
   0   6 -12   14.78    1.74
   0   6 -11  237.33    4.05
   0   6 -11  233.13    6.09
   0   6 -10   61.75    1.67
   0   6 -10   59.63    2.83
   0   6  -9  197.96    3.47
   0   6  -9  204.94    5.31
   0   6  -8    0.65    0.73
   0   6  -8    1.11    1.09
   0   6  -7  180.18    4.63
   0   6  -6  150.36    3.95
   0   6  -5   38.96    1.85
   0   6  -3  253.79    4.96
   0   6  -1  877.89   13.27
   0   6   0  506.59    8.25
   0   6   1  450.04    7.52
   0   6   6  626.48    8.95
   0   6   7   77.89    1.65
   0   6   8  198.09    3.39
   0   6   8  205.23    3.50
   0   6   8  196.78    3.41
   0   6   9   14.63    0.96
   0   6   9   15.21    0.99
   0   6   9   15.96    0.84
   0   6   9   15.79    0.95
   0   6  10  175.84    3.32
   0   6  10  190.90    3.49
   0   6  10  179.50    3.37
   0   6  10  191.08    3.56
   0   6  11   41.67    1.57
   0   6  11   42.69    1.42
   0   6  11   43.82    1.55
   0   6  12   94.30    2.36
   0   6  12   87.36    2.20
   0   6  12   91.20    2.34
   0   6  13   47.78    1.56
   0   6  13   44.21    1.68
   0   6  14  206.90    3.80
   0   6  14  185.79    3.58
   0   7 -16  110.36    1.82
   0   7 -15    2.46    0.48
   0   7 -15    2.75    0.73
   0   7 -15    2.38    0.64
   0   7 -14   67.88    1.59
   0   7 -14   66.80    1.65
   0   7 -14   68.42    1.71
   0   7 -13    0.02    0.88
   0   7 -12  103.39    2.35
   0   7 -11   22.15    1.29
   0   7 -11   24.95    2.06
   0   7 -10  223.74    4.01
   0   7 -10  217.46    5.81
   0   7  -9    3.58    0.99
   0   7  -9    4.78    1.33
   0   7  -8  285.71    4.78
   0   7  -8  301.87    6.70
   0   7  -7   32.48    1.26
   0   7  -7   30.77    2.03
   0   7  -6  193.78    3.39
   0   7  -6  205.57    4.96
   0   7  -5    0.74    0.96
   0   7  -4  884.86   14.08
   0   7  -1  684.73   10.97
   0   7   0  251.24    5.00
   0   7   1  303.65    5.79
   0   7   2  887.93   13.86
   0   7   8    0.19    0.68
   0   7   8    0.51    0.71
   0   7   9  358.84    5.86
   0   7   9  347.73    5.62
   0   7   9  362.80    5.74
   0   7  10  112.00    2.57
   0   7  10  108.51    2.39
   0   7  10  113.12    2.52
   0   7  11  100.05    2.44
   0   7  11   99.54    2.45
   0   7  12   23.50    1.38
   0   7  12   23.34    1.27
   0   7  12   21.01    1.11
   0   7  13  179.12    3.48
   0   7  13  160.58    3.29
   0   7  14   31.20    1.41
   0   7  14   27.75    1.15
   0   7  15   43.25    1.54
   0   8 -15   57.69    1.25
   0   8 -15   55.66    1.09
   0   8 -14    1.19    0.67
   0   8 -14    1.55    0.78
   0   8 -14    1.34    0.50
   0   8 -13   90.85    2.00
   0   8 -13   93.09    2.09
   0   8 -13   91.47    1.97
   0   8 -12    0.95    0.66
   0   8 -11   68.91    1.88
   0   8 -11   63.63    3.05
   0   8 -11   68.44    1.84
   0   8 -10   14.28    1.14
   0   8 -10   12.53    1.59
   0   8 -10   14.41    1.02
   0   8  -9  111.27    2.50
   0   8  -9  113.24    4.01
   0   8  -9  114.43    2.55
   0   8  -8   17.95    1.18
   0   8  -8   20.78    1.89
   0   8  -8   17.50    1.06
   0   8  -7  210.67    3.75
   0   8  -7  223.22    5.64
   0   8  -7  215.00    3.86
   0   8  -6   11.88    0.97
   0   8  -6   12.48    1.53
   0   8  -6   11.65    0.89
   0   8  -5  269.51    4.42
   0   8  -5  275.18    4.55
   0   8  -4   86.52    1.88
   0   8  -4   85.59    2.92
   0   8  -3   73.34    2.56
   0   8   0  333.86    4.88
   0   8   6  602.26    8.92
   0   8   8   58.40    1.61
   0   8   9   15.30    1.04
   0   8   9   15.41    1.04
   0   8   9   16.22    1.11
   0   8  10   10.15    0.99
   0   8  10    8.07    0.98
   0   8  10    9.62    1.07
   0   8  11  178.25    3.51
   0   8  11  173.19    3.55
   0   8  12  162.67    3.29
   0   8  12  157.23    3.31
   0   8  13   -0.35    0.94
   0   8  13    0.17    0.60
   0   8  15   17.06    1.12
   0   9 -14   37.11    0.91
   0   9 -14   35.97    1.07
   0   9 -13    0.43    0.51
   0   9 -13    0.82    0.68
   0   9 -13    0.46    0.79
   0   9 -12   37.65    1.22
   0   9 -12   37.03    1.28
   0   9 -12   38.76    1.39
   0   9 -11    0.25    0.66
   0   9 -10    3.85    0.77
   0   9 -10    4.43    1.30
   0   9 -10    3.21    0.92
   0   9 -10    3.31    1.06
   0   9  -9    9.92    0.94
   0   9  -9   10.81    1.59
   0   9  -9   11.70    1.19
   0   9  -9    9.96    1.05
   0   9  -8  215.16    3.93
   0   9  -8  217.97    5.80
   0   9  -8  215.82    3.87
   0   9  -8  207.05    3.81
   0   9  -7    0.14    0.74
   0   9  -7    0.19    1.17
   0   9  -7    0.35    0.90
   0   9  -7    0.17    1.01
   0   9  -6  140.62    2.83
   0   9  -6  145.64    4.40
   0   9  -6  135.99    2.73
   0   9  -6  138.05    2.76
   0   9  -5    0.07    0.67
   0   9  -5    0.78    1.06
   0   9  -5    0.42    0.79
   0   9  -5    0.18    0.87
   0   9  -4  255.64    4.27
   0   9  -4  251.39    5.86
   0   9  -4  249.39    4.13
   0   9  -4  249.69    4.14
   0   9  -3   14.35    0.86
   0   9  -3   13.38    1.38
   0   9  -3   14.63    0.91
   0   9  -3   14.49    0.96
   0   9  -2  458.82    8.32
   0   9  -1  414.45    7.52
   0   9   0   26.86    1.68
   0   9   1  147.52    2.50
   0   9   1  156.20    4.06
   0   9   2   56.03    2.40
   0   9   3  100.11    3.33
   0   9   4    5.05    0.69
   0   9   4    4.64    1.13
   0   9   4    5.18    0.70
   0   9   5  257.16    6.14
   0   9   5  263.23    4.41
   0   9   6  150.53    2.95
   0   9   8   11.33    0.98
   0   9   9    6.54    0.99
   0   9   9    5.94    0.97
   0   9  10  121.05    2.82
   0   9  10  119.63    2.65
   0   9  10  125.35    2.76
   0   9  11    7.68    0.99
   0   9  11    6.98    1.03
   0   9  11    8.08    1.09
   0   9  12  111.25    2.64
   0   9  12  110.42    2.65
   0   9  13  173.82    3.38
   0   9  13  169.77    3.41
   0   9  14    1.68    0.87
   0   9  14    1.03    0.54
   0   9  15   79.99    1.96
   0  10 -13   30.79    1.03
   0  10 -13   31.25    0.87
   0  10 -12    3.62    0.84
   0  10 -12    3.58    0.58
   0  10 -11   30.67    1.17
   0  10 -11   31.50    1.28
   0  10 -10    0.77    0.92
   0  10 -10    1.18    0.67
   0  10  -9   78.57    1.99
   0  10  -9   81.89    2.08
   0  10  -9   81.68    3.37
   0  10  -9   84.19    2.05
   0  10  -8    1.47    0.90
   0  10  -8    2.09    1.01
   0  10  -8    2.21    1.22
   0  10  -8    2.05    0.78
   0  10  -7  106.89    2.44
   0  10  -7  106.37    2.37
   0  10  -7  109.04    3.97
   0  10  -7  111.72    2.48
   0  10  -6    3.65    0.91
   0  10  -6    4.34    1.00
   0  10  -6    3.55    1.29
   0  10  -6    4.38    0.83
   0  10  -5  123.84    2.57
   0  10  -5  120.91    2.53
   0  10  -5  126.48    2.65
   0  10  -4   53.82    1.58
   0  10  -4   50.83    2.50
   0  10  -4   56.17    1.60
   0  10  -3  236.29    3.96
   0  10  -3  239.54    5.63
   0  10  -3  235.53    4.09
   0  10  -2    8.76    0.87
   0  10  -2   10.07    0.82
   0  10  -2    9.96    1.24
   0  10  -1    5.92    0.74
   0  10  -1    5.07    1.00
   0  10   0    5.50    0.73
   0  10   0    4.59    0.93
   0  10   0    4.92    0.73
   0  10   1   99.01    2.15
   0  10   1  103.12    2.19
   0  10   1   98.44    3.36
   0  10   2    5.24    0.75
   0  10   2    4.50    0.71
   0  10   2    3.46    1.09
   0  10   3  190.08    3.46
   0  10   3  189.66    3.45
   0  10   3  193.75    5.09
   0  10   4  116.50    2.44
   0  10   4  111.87    2.42
   0  10   5  215.75    5.75
   0  10   5  221.33    3.97
   0  10   6  377.41    8.45
   0  10   6  392.92    6.31
   0  10   7  115.49    4.25
   0  10   8  136.27    2.87
   0  10   8  142.30    4.82
   0  10   9    1.19    0.95
   0  10   9    1.64    0.94
   0  10  10  157.19    3.39
   0  10  10  159.63    3.19
   0  10  10  159.23    3.29
   0  10  11   38.91    1.57
   0  10  11   36.86    1.50
   0  10  11   38.97    1.58
   0  10  12  189.78    3.66
   0  10  12  184.72    3.70
   0  10  14  159.99    3.00
   0  10  14  141.22    2.78
   0  10  15    0.19    0.73
   0  11 -13    5.66    0.36
   0  11 -12   38.59    1.13
   0  11 -12   40.10    1.02
   0  11 -11    7.91    0.87
   0  11 -11    8.01    0.66
   0  11 -10   31.76    1.26
   0  11  -9   19.23    1.00
   0  11  -8  190.61    3.50
   0  11  -8  188.58    5.29
   0  11  -8  191.00    3.55
   0  11  -7    8.58    1.07
   0  11  -7   10.92    1.53
   0  11  -7    8.83    0.90
   0  11  -6  166.48    3.24
   0  11  -6  172.11    3.34
   0  11  -5   30.89    1.35
   0  11  -5   30.76    1.32
   0  11  -4   71.94    1.89
   0  11  -4   78.06    3.17
   0  11  -4   75.06    1.96
   0  11  -3   66.16    1.77
   0  11  -3   71.66    1.88
   0  11  -3   68.78    2.86
   0  11  -2  188.42    3.52
   0  11  -2  190.87    4.88
   0  11  -1   33.91    1.28
   0  11  -1   35.00    1.34
   0  11  -1   30.42    1.85
   0  11   0   86.82    2.07
   0  11   0   85.88    2.09
   0  11   1    9.82    0.89
   0  11   1    8.92    0.87
   0  11   1   10.41    1.39
   0  11   2  204.77    3.79
   0  11   2  208.65    3.79
   0  11   2  216.22    5.57
   0  11   3  188.18    3.56
   0  11   3  198.75    5.37
   0  11   3  190.16    3.57
   0  11   4   26.91    2.07
   0  11   4   29.31    1.29
   0  11   5  173.15    5.21
   0  11   5  172.12    3.41
   0  11   6   63.91    3.22
   0  11   6   69.51    1.97
   0  11   7  173.09    5.46
   0  11   8   30.49    1.41
   0  11   8   29.55    2.40
   0  11   9   67.05    2.00
   0  11   9   68.95    1.98
   0  11  10    9.96    1.73
   0  11  10   10.21    1.13
   0  11  10   11.86    1.15
   0  11  10   11.06    1.08
   0  11  11  437.92    7.19
   0  11  11  446.70    6.98
   0  11  11  443.46    7.07
   0  11  12    3.24    0.81
   0  11  13  174.42    3.27
   0  11  13  172.38    3.30
   0  11  14    0.49    0.77
   0  11  15   53.00    1.42
   0  12 -12   14.81    0.51
   0  12 -11   21.08    0.72
   0  12 -11   21.43    0.76
   0  12 -10   32.06    1.04
   0  12  -9   64.95    1.67
   0  12  -9   69.26    1.66
   0  12  -8   26.15    1.11
   0  12  -7  142.32    2.84
   0  12  -7  144.71    4.51
   0  12  -7  148.31    2.94
   0  12  -6    0.89    0.89
   0  12  -6    0.70    0.74
   0  12  -6    2.16    1.18
   0  12  -5  103.42    2.41
   0  12  -5  103.67    3.78
   0  12  -4   11.62    0.99
   0  12  -4    9.70    1.46
   0  12  -3  261.30    4.61
   0  12  -3  260.16    6.22
   0  12  -2   27.72    1.29
   0  12  -2   27.91    1.32
   0  12  -2   30.10    1.97
   0  12  -1  146.54    3.03
   0  12  -1  151.03    3.08
   0  12   0   47.17    1.58
   0  12   0   48.62    1.63
   0  12   1   45.64    1.59
   0  12   1   45.65    1.58
   0  12   2    1.13    0.81
   0  12   2    0.47    0.79
   0  12   2    1.58    1.12
   0  12   3  184.12    3.55
   0  12   3  182.13    3.56
   0  12   4   20.70    1.97
   0  12   4   23.43    1.27
   0  12   5  338.01    7.99
   0  12   5  333.97    5.72
   0  12   6  185.99    5.67
   0  12   7    8.50    1.59
   0  12   8   31.15    1.18
   0  12   8   29.25    2.38
   0  12   9   44.03    2.83
   0  12   9   46.79    1.67
   0  12   9   46.25    1.68
   0  12  10  185.04    3.74
   0  12  10  187.76    3.59
   0  12  10  186.55    3.64
   0  12  11   12.39    1.01
   0  12  12   87.73    2.16
   0  12  13    1.52    0.79
   0  12  13    2.03    0.68
   0  12  13    1.93    0.54
   0  12  14   23.73    1.03
   0  12  15    1.35    0.54
   0  13 -11   12.32    0.48
   0  13 -10   22.17    0.73
   0  13 -10   22.61    0.78
   0  13  -9   15.55    0.76
   0  13  -9   16.20    0.78
   0  13  -8   42.33    1.27
   0  13  -8   40.94    1.26
   0  13  -6   46.83    1.50
   0  13  -5   21.31    1.13
   0  13  -5   23.43    1.89
   0  13  -5   20.35    1.14
   0  13  -4  132.84    2.76
   0  13  -4  130.74    2.75
   0  13  -4  130.47    4.11
   0  13  -3   15.85    1.08
   0  13  -3   15.09    1.08
   0  13  -3   13.93    1.58
   0  13  -3   13.45    0.94
   0  13  -2  441.89    7.06
   0  13  -2  445.07    7.10
   0  13  -1   27.64    1.33
   0  13  -1   26.19    1.32
   0  13   0  153.38    3.22
   0  13   0  155.01    3.21
   0  13   1    3.44    0.92
   0  13   1    4.04    0.90
   0  13   2  134.43    2.96
   0  13   2  134.29    2.96
   0  13   3   72.72    3.37
   0  13   3   79.28    2.17
   0  13   4   96.64    3.90
   0  13   4   94.89    2.44
   0  13   5   20.53    2.03
   0  13   5   23.83    1.34
   0  13   6   44.47    2.79
   0  13   6   49.34    1.52
   0  13   7   18.14    1.28
   0  13   7   16.65    1.00
   0  13   7   16.66    1.92
   0  13   8   65.06    1.69
   0  13   8   68.16    1.99
   0  13   8   63.29    1.92
   0  13   9   77.24    2.08
   0  13   9   72.60    2.05
   0  13  10   12.87    1.01
   0  13  11   68.36    1.89
   0  13  11   72.59    1.88
   0  13  12   15.59    1.02
   0  13  12   15.87    0.85
   0  13  12   16.83    0.97
   0  13  13   32.26    1.18
   0  13  14    1.47    0.56
   0  14 -10   15.51    0.49
   0  14  -9   19.59    0.66
   0  14  -9   21.11    0.72
   0  14  -8    9.71    0.62
   0  14  -8    9.61    0.66
   0  14  -7   21.14    0.91
   0  14  -7   21.24    0.93
   0  14  -6   18.73    0.96
   0  14  -6   17.26    0.95
   0  14  -4    0.96    0.64
   0  14  -4    0.90    0.73
   0  14  -4    1.09    0.72
   0  14  -3   19.15    1.00
   0  14  -3   20.65    1.13
   0  14  -3   20.62    1.16
   0  14  -2   25.38    1.25
   0  14  -2   25.47    1.26
   0  14  -1   89.28    2.13
   0  14  -1   92.10    2.32
   0  14  -1   92.21    2.32
   0  14   0    8.92    1.01
   0  14   0    9.58    1.01
   0  14   1  103.40    2.53
   0  14   1  106.68    2.56
   0  14   2   26.91    1.36
   0  14   3   75.97    2.15
   0  14   4    1.12    0.88
   0  14   4    1.09    0.79
   0  14   4    2.01    1.19
   0  14   5  189.22    3.76
   0  14   5  193.17    3.55
   0  14   6   40.05    2.59
   0  14   6   46.16    1.49
   0  14   7  108.75    2.54
   0  14   7  107.91    2.34
   0  14   9   22.66    1.23
   0  14   9   20.33    1.17
   0  14   9   20.86    0.88
   0  14  10   55.15    1.64
   0  14  10   56.00    1.68
   0  14  11   17.19    0.96
   0  14  11   17.54    1.01
   0  14  11   16.14    0.73
   0  14  12   57.32    1.49
   0  14  12   58.27    1.42
   0  14  13    4.31    0.61
   0  15  -8   24.26    0.72
   0  15  -8   22.71    0.64
   0  15  -7    5.09    0.55
   0  15  -7    4.93    0.51
   0  15  -6    6.39    0.64
   0  15  -6    6.60    0.62
   0  15  -5   27.23    1.06
   0  15  -5   27.91    1.05
   0  15  -4   46.48    1.44
   0  15  -4   46.55    1.41
   0  15  -3    2.71    0.67
   0  15  -2   28.47    1.25
   0  15  -2   28.31    1.15
   0  15  -2   30.23    1.26
   0  15  -1    0.53    0.73
   0  15  -1    0.73    0.75
   0  15  -1    0.12    0.73
   0  15   0   16.02    1.08
   0  15   0   14.78    1.02
   0  15   0   15.99    1.06
   0  15   1    7.28    0.93
   0  15   1    7.68    0.92
   0  15   2  108.84    2.56
   0  15   2  108.20    2.40
   0  15   3   19.89    1.18
   0  15   3   16.68    1.09
   0  15   4  164.96    3.45
   0  15   4  181.59    3.33
   0  15   5    2.99    0.80
   0  15   6   38.29    1.33
   0  15   7   11.19    0.87
   0  15   7    8.72    0.93
   0  15   7   10.97    1.05
   0  15   8   31.13    1.28
   0  15   8   36.19    1.39
   0  15   9   14.03    0.96
   0  15   9   15.68    0.98
   0  15  10   10.23    0.83
   0  15  10   11.91    0.91
   0  15  10   11.37    0.82
   0  15  11   11.69    0.74
   0  15  11   10.13    0.76
   0  15  12   12.39    0.67
   0  16  -7    7.61    0.40
   0  16  -6   32.89    0.90
   0  16  -5   29.38    0.91
   0  16  -5   29.03    0.95
   0  16  -4   23.65    0.92
   0  16  -4   25.21    0.97
   0  16  -3  118.21    2.26
   0  16  -3  116.41    2.28
   0  16  -2   19.47    0.97
   0  16  -2   20.18    0.94
   0  16  -2   20.04    1.01
   0  16  -1   59.24    1.56
   0  16  -1   61.17    1.68
   0  16   0    0.37    0.72
   0  16   0    0.37    0.69
   0  16   1   73.55    1.82
   0  16   2    0.26    0.74
   0  16   3   37.52    1.34
   0  16   4   -0.10    0.75
   0  16   5   65.08    1.68
   0  16   5   65.41    1.79
   0  16   6    0.43    0.84
   0  16   6    0.41    0.66
   0  16   6    0.49    0.67
   0  16   7   34.16    1.21
   0  16   7   41.46    1.38
   0  16   8    5.84    0.73
   0  16   8    6.50    0.84
   0  16   8    5.41    0.70
   0  16   9   27.38    1.08
   0  16   9   25.26    1.00
   0  16  10   14.96    0.75
   0  16  11   43.20    1.04
   0  17  -5    4.82    0.37
   0  17  -4   15.62    0.65
   0  17  -3   29.30    0.93
   0  17  -2   75.74    1.66
   0  17  -1   28.47    1.03
   0  17  -1   27.34    0.96
   0  17   0   76.76    1.76
   0  17   0   73.53    1.66
   0  17   1    0.18    0.62
   0  17   1    0.40    0.63
   0  17   2   62.22    1.55
   0  17   3    0.33    0.66
   0  17   4   73.34    1.75
   0  17   4   73.20    1.69
   0  17   5    3.68    0.77
   0  17   5    2.93    0.65
   0  17   6   34.46    1.18
   0  17   6   36.15    1.08
   0  17   7   14.54    0.78
   0  17   7   18.40    0.91
   0  17   8   39.35    1.11
   0  17   8   41.31    1.16
   0  17   9    0.92    0.40
   0  17  10   43.80    0.87
   0  17  10   30.43    0.74
   0  18   2    1.13    0.54
   0  18   3   46.57    1.16
   0  18   4    0.61    0.57
   0  18   5   52.54    1.26
   0  18   6    6.36    0.59
   0  18   6    6.03    0.49
   0  18   7   27.15    0.81
   0  18   7   26.55    0.75
   1 -18  -4   32.96    0.91
   1 -18  -3   13.58    0.71
   1 -18  -2   28.28    0.91
   1 -18  -1    5.65    0.61
   1 -18  -1    1.88    0.35
   1 -18   0   37.31    0.96
   1 -17  -6    7.23    0.66
   1 -17  -5   24.85    0.99
   1 -17  -5   20.45    0.87
   1 -17  -4    0.39    0.75
   1 -17  -4    0.39    0.48
   1 -17  -3   50.64    1.42
   1 -17  -3   41.95    1.27
   1 -17  -2    2.34    0.83
   1 -17  -2    1.75    0.53
   1 -17  -2    0.99    0.58
   1 -17  -1   76.73    1.79
   1 -17  -1   73.57    1.72
   1 -17   0   11.17    0.64
   1 -17   0   12.62    0.75
   1 -17   0   12.35    0.83
   1 -17   1    9.35    0.79
   1 -17   1    8.39    0.78
   1 -17   1    7.98    0.59
   1 -17   1    8.13    0.64
   1 -17   2   21.61    0.80
   1 -17   2   23.21    0.87
   1 -17   3   37.11    1.04
   1 -17   3   30.61    0.88
   1 -17   4    4.25    0.45
   1 -17   4    5.55    0.58
   1 -17   5    9.33    0.46
   1 -16 -10   18.95    0.81
   1 -16  -7    0.17    0.65
   1 -16  -6   34.25    1.22
   1 -16  -5    5.66    0.91
   1 -16  -4   70.04    1.82
   1 -16  -3    4.28    0.71
   1 -16  -3    5.00    0.97
   1 -16  -2  117.38    2.53
   1 -16  -2  129.03    2.72
   1 -16  -1    1.39    0.76
   1 -16  -1    1.20    0.58
   1 -16  -1    1.23    0.66
   1 -16  -1    0.93    0.90
   1 -16   0   66.04    1.78
   1 -16   0   67.39    1.71
   1 -16   0   67.26    1.81
   1 -16   0   71.24    1.83
   1 -16   1    0.71    0.61
   1 -16   1    0.34    0.49
   1 -16   1    0.67    0.61
   1 -16   1    0.67    0.77
   1 -16   1    1.01    0.85
   1 -16   2   10.68    0.81
   1 -16   2    9.06    0.71
   1 -16   2   11.32    0.83
   1 -16   2   11.76    0.93
   1 -16   2   10.88    0.93
   1 -16   3    7.36    0.89
   1 -16   3    6.61    0.72
   1 -16   3    6.60    0.68
   1 -16   4   46.91    1.31
   1 -16   4   52.15    1.40
   1 -16   4   36.50    1.02
   1 -16   4   41.32    1.25
   1 -16   5   10.31    0.71
   1 -16   5   11.02    0.79
   1 -16   5   10.18    0.66
   1 -16   6   19.20    0.64
   1 -16   6   27.58    0.88
   1 -16   7   51.29    1.09
   1 -16   7   42.70    1.05
   1 -15 -12    2.78    0.43
   1 -15 -12    9.26    0.40
   1 -15 -11   86.51    1.64
   1 -15 -10   12.37    0.69
   1 -15  -9   34.42    1.11
   1 -15  -9   37.06    1.15
   1 -15  -8   12.09    0.81
   1 -15  -8   13.48    0.83
   1 -15  -7  106.67    2.26
   1 -15  -7  107.28    2.19
   1 -15  -6    1.91    0.87
   1 -15  -6    1.91    0.67
   1 -15  -6    1.17    0.62
   1 -15  -5   58.12    1.74
   1 -15  -4    1.63    0.51
   1 -15  -3  222.36    3.84
   1 -15  -2   37.63    1.23
   1 -15  -1  173.95    3.51
   1 -15   0   35.33    1.43
   1 -15   1   15.61    1.04
   1 -15   2    9.01    0.89
   1 -15   3   79.89    2.07
   1 -15   3   82.45    2.05
   1 -15   3   79.38    1.93
   1 -15   4   19.93    1.15
   1 -15   4   19.37    1.02
   1 -15   5   48.01    1.41
   1 -15   5   52.00    1.52
   1 -15   6   32.83    1.10
   1 -15   6   36.03    1.19
   1 -15   7   10.30    0.66
   1 -15   7   12.15    0.69
   1 -15   8   39.03    1.05
   1 -15   8   34.24    0.94
   1 -15   9    1.47    0.35
   1 -15   9    1.20    0.28
   1 -14 -13   18.07    0.58
   1 -14 -12   61.94    1.37
   1 -14 -11    4.61    0.60
   1 -14 -11    3.96    0.67
   1 -14 -10   34.75    1.19
   1 -14 -10   33.76    1.21
   1 -14 -10   34.41    1.11
   1 -14  -9   23.34    1.05
   1 -14  -9   21.31    1.07
   1 -14  -9   21.91    0.97
   1 -14  -8   28.83    1.21
   1 -14  -8   29.01    1.11
   1 -14  -7   23.95    1.13
   1 -14  -7   25.47    1.15
   1 -14  -7   23.42    1.18
   1 -14  -6  174.39    3.37
   1 -14  -6  180.32    3.29
   1 -14  -6  171.70    3.24
   1 -14  -5   16.05    0.92
   1 -14  -5   13.68    0.84
   1 -14  -5   13.70    0.98
   1 -14  -5   17.94    1.03
   1 -14  -5   15.80    1.20
   1 -14  -4  205.01    3.64
   1 -14  -4  228.23    6.51
   1 -14  -4  221.93    6.77
   1 -14  -4  201.24    3.66
   1 -14  -4  198.89    3.68
   1 -14  -3    2.63    1.78
   1 -14  -3    2.12    2.32
   1 -14  -3    2.32    1.39
   1 -14  -3    2.66    0.69
   1 -14  -3    1.83    0.56
   1 -14  -3    2.10    0.83
   1 -14  -2   80.26    4.13
   1 -14  -2   79.68    4.06
   1 -14  -2   80.37    2.06
   1 -14  -2   72.58    3.65
   1 -14  -2   72.54    1.88
   1 -14  -2   72.49    2.01
   1 -14  -1   26.10    2.67
   1 -14  -1   25.58    2.96
   1 -14  -1   29.70    2.47
   1 -14  -1   24.73    1.25
   1 -14  -1   25.38    1.10
   1 -14  -1   24.96    1.33
   1 -14   0  100.33    4.28
   1 -14   0   99.38    4.49
   1 -14   0  102.83    4.53
   1 -14   0   98.28    2.46
   1 -14   0   99.70    2.50
   1 -14   0   98.53    2.28
   1 -14   0   94.47    2.42
   1 -14   1  148.65    3.16
   1 -14   1  150.21    3.22
   1 -14   1  137.56    5.06
   1 -14   1  154.97    5.36
   1 -14   1  151.86    5.42
   1 -14   2  152.96    3.20
   1 -14   2  146.58    3.05
   1 -14   2  155.06    3.25
   1 -14   2  151.18    3.12
   1 -14   2  148.70    5.30
   1 -14   2  147.90    5.31
   1 -14   3   92.28    2.33
   1 -14   3   86.15    2.17
   1 -14   3   89.33    2.27
   1 -14   4   33.52    1.38
   1 -14   5    1.85    0.73
   1 -14   5    1.66    0.71
   1 -14   6   94.72    2.19
   1 -14   6   84.05    2.11
   1 -14   7   40.59    1.31
   1 -14   7   37.51    1.25
   1 -14   8    3.02    0.44
   1 -14   8    3.95    0.59
   1 -14   9    1.08    0.31
   1 -14   9    1.48    0.47
   1 -14  10    1.50    0.39
   1 -13 -14   11.79    0.46
   1 -13 -14   16.86    0.54
   1 -13 -13   29.09    0.91
   1 -13 -12   29.25    1.06
   1 -13 -12   27.71    1.09
   1 -13 -11   79.58    1.91
   1 -13 -11   81.50    1.94
   1 -13 -11   76.39    1.82
   1 -13 -10   23.67    1.12
   1 -13 -10   22.34    1.17
   1 -13 -10   24.53    1.07
   1 -13  -9   55.97    1.70
   1 -13  -8   23.50    1.18
   1 -13  -8   22.04    1.20
   1 -13  -8   21.96    1.08
   1 -13  -7   90.56    2.17
   1 -13  -7   92.68    2.23
   1 -13  -7   94.05    2.30
   1 -13  -7   85.97    2.15
   1 -13  -6   17.22    1.00
   1 -13  -6   17.60    1.11
   1 -13  -6   18.97    1.11
   1 -13  -6   20.33    2.67
   1 -13  -6   19.56    1.24
   1 -13  -5   76.80    1.92
   1 -13  -5   73.95    1.97
   1 -13  -5   69.71    1.89
   1 -13  -5   80.35    4.06
   1 -13  -5   82.15    4.14
   1 -13  -4   18.71    0.99
   1 -13  -4   19.83    1.12
   1 -13  -4   18.46    1.00
   1 -13  -4   21.75    2.51
   1 -13  -4   22.86    2.87
   1 -13  -3   75.13    2.04
   1 -13  -3   83.78    2.11
   1 -13  -3   78.05    1.98
   1 -13  -3   76.42    1.98
   1 -13  -3   88.26    4.29
   1 -13  -3   94.58    4.40
   1 -13  -2   52.15    1.70
   1 -13  -2   57.18    1.76
   1 -13  -2   49.08    1.54
   1 -13  -2   56.78    3.55
   1 -13  -2   58.31    3.74
   1 -13  -1  202.93    3.87
   1 -13  -1  210.32    4.01
   1 -13  -1  198.33    3.77
   1 -13  -1  211.51    6.36
   1 -13  -1  214.26    6.45
   1 -13  -1  216.66    6.69
   1 -13   0   38.26    1.36
   1 -13   0   40.32    3.34
   1 -13   0   37.97    2.98
   1 -13   0   40.32    2.84
   1 -13   0   37.21    1.58
   1 -13   1  355.79    6.10
   1 -13   1  361.40    5.90
   1 -13   1  374.58    9.09
   1 -13   1  351.25    8.72
   1 -13   1  364.89    8.73
   1 -13   1  341.56    5.89
   1 -13   1  359.80    6.02
   1 -13   2  112.41    2.71
   1 -13   2  110.30    4.52
   1 -13   2  110.19    4.68
   1 -13   2  110.99    4.64
   1 -13   2  119.70    2.77
   1 -13   3  298.74    5.33
   1 -13   3  287.29    7.62
   1 -13   3  290.06    7.82
   1 -13   3  283.30    7.72
   1 -13   4    1.02    0.75
   1 -13   4    1.25    2.00
   1 -13   4    0.70    0.91
   1 -13   4    1.41    1.48
   1 -13   4    1.89    1.00
   1 -13   5   99.34    2.40
   1 -13   5   90.95    2.31
   1 -13   6   28.31    1.31
   1 -13   6   31.70    1.41
   1 -13   7   61.48    1.76
   1 -13   7   66.01    1.79
   1 -13   8   18.92    0.93
   1 -13   8   23.94    1.08
   1 -13   9   45.73    1.33
   1 -13   9   60.44    1.51
   1 -13  10    9.36    0.60
   1 -13  10   14.67    0.74
   1 -13  11   26.03    0.71
   1 -12 -15   25.35    0.61
   1 -12 -15   30.47    0.68
   1 -12 -14    6.81    0.55
   1 -12 -13   22.91    0.93
   1 -12 -13   21.63    1.01
   1 -12 -12    6.22    0.81
   1 -12 -12    6.47    0.76
   1 -12 -12    5.55    0.84
   1 -12 -11  194.70    3.53
   1 -12 -11  179.97    3.25
   1 -12 -10   58.11    1.72
   1 -12 -10   60.74    1.83
   1 -12 -10   60.61    1.81
   1 -12  -9  108.68    2.49
   1 -12  -9  110.37    2.35
   1 -12  -9  110.40    2.56
   1 -12  -9  110.88    2.60
   1 -12  -8  169.46    3.39
   1 -12  -8  173.68    3.19
   1 -12  -8  173.37    3.51
   1 -12  -8  176.38    3.44
   1 -12  -7   49.83    1.62
   1 -12  -7   52.78    1.71
   1 -12  -7   52.61    1.72
   1 -12  -7   51.41    3.29
   1 -12  -7   50.61    1.63
   1 -12  -6   50.97    1.68
   1 -12  -6   48.49    1.57
   1 -12  -6   51.12    1.65
   1 -12  -6   51.90    3.36
   1 -12  -5   62.26    1.76
   1 -12  -5   68.74    3.80
   1 -12  -5   70.26    3.86
   1 -12  -4  238.19    4.02
   1 -12  -4  248.20    7.11
   1 -12  -4  250.16    6.69
   1 -12  -3    6.63    1.93
   1 -12  -3    7.81    2.53
   1 -12  -3    5.31    0.81
   1 -12  -3    6.30    0.75
   1 -12  -3    6.60    0.86
   1 -12  -3    4.54    0.88
   1 -12  -2  152.99    5.46
   1 -12  -2  159.04    5.39
   1 -12  -2  152.82    3.08
   1 -12  -2  140.91    2.93
   1 -12  -2  138.89    2.83
   1 -12  -2  138.60    2.90
   1 -12  -1    0.19    0.87
   1 -12  -1    0.63    1.72
   1 -12  -1    2.25    2.41
   1 -12  -1    0.98    0.58
   1 -12  -1    0.09    0.69
   1 -12   0   45.43    1.65
   1 -12   0   47.53    1.52
   1 -12   0   45.49    1.46
   1 -12   0   49.89    2.98
   1 -12   0   48.56    3.21
   1 -12   0   51.52    3.50
   1 -12   1   81.30    2.17
   1 -12   1   79.42    2.00
   1 -12   1   78.64    3.91
   1 -12   1   82.41    4.09
   1 -12   1   75.76    3.66
   1 -12   1   71.32    1.86
   1 -12   2  301.00    5.19
   1 -12   2  281.84    7.55
   1 -12   2  290.69    7.78
   1 -12   2  290.29    7.56
   1 -12   3    2.02    1.06
   1 -12   3    1.97    1.63
   1 -12   3    3.12    2.29
   1 -12   3    1.47    1.38
   1 -12   3    1.15    0.66
   1 -12   4   48.78    1.78
   1 -12   4   44.53    1.60
   1 -12   4   41.03    3.13
   1 -12   4   39.59    2.85
   1 -12   4   42.05    1.56
   1 -12   5   10.35    1.16
   1 -12   5    9.50    0.93
   1 -12   5    7.74    1.75
   1 -12   5    7.92    0.98
   1 -12   5    7.36    0.87
   1 -12   6   95.46    2.50
   1 -12   6   99.57    4.10
   1 -12   7   18.43    1.18
   1 -12   7   17.22    1.10
   1 -12   8  197.29    3.76
   1 -12   9   53.51    1.59
   1 -12  10   86.40    2.07
   1 -12  10   95.81    2.03
   1 -12  11   50.27    1.39
   1 -12  11   64.58    1.39
   1 -12  12   41.64    1.03
   1 -11 -15    0.43    0.38
   1 -11 -15    0.53    0.39
   1 -11 -14   28.60    1.00
   1 -11 -14   25.51    0.93
   1 -11 -14   25.74    1.03
   1 -11 -14   30.58    1.01
   1 -11 -13   12.80    0.85
   1 -11 -13   12.45    0.92
   1 -11 -13   10.74    0.94
   1 -11 -13   11.34    0.80
   1 -11 -12  132.50    2.76
   1 -11 -12  126.99    2.56
   1 -11 -11   44.19    1.50
   1 -11 -11   43.54    1.63
   1 -11 -11   42.30    1.55
   1 -11 -10  256.18    4.61
   1 -11 -10  256.65    4.45
   1 -11 -10  270.81    4.69
   1 -11 -10  257.97    4.70
   1 -11  -9   10.62    0.95
   1 -11  -9   11.15    1.06
   1 -11  -9   11.28    1.09
   1 -11  -9   10.75    1.03
   1 -11  -8   39.51    1.48
   1 -11  -8   40.80    1.54
   1 -11  -8   39.12    1.54
   1 -11  -7  168.24    3.39
   1 -11  -7  168.02    3.30
   1 -11  -7  161.81    5.22
   1 -11  -7  160.24    3.15
   1 -11  -6   30.43    1.32
   1 -11  -6   28.12    1.22
   1 -11  -6   27.65    2.81
   1 -11  -6   27.87    2.69
   1 -11  -6   27.54    1.31
   1 -11  -5  178.75    3.44
   1 -11  -5  185.61    3.50
   1 -11  -5  185.31    6.09
   1 -11  -4   23.72    1.09
   1 -11  -4   24.56    1.19
   1 -11  -4   29.18    2.89
   1 -11  -4   24.48    2.55
   1 -11  -3  180.66    3.36
   1 -11  -3  178.59    3.27
   1 -11  -3  188.40    5.93
   1 -11  -2   29.39    1.27
   1 -11  -2   32.47    1.28
   1 -11  -2   33.53    2.70
   1 -11  -2   31.56    2.99
   1 -11  -2   28.82    1.19
   1 -11  -2   30.85    1.19
   1 -11  -1  148.22    2.89
   1 -11  -1  146.59    2.95
   1 -11  -1  150.80    2.94
   1 -11  -1  153.07    5.20
   1 -11  -1  156.07    5.15
   1 -11   0    6.91    0.97
   1 -11   0    6.46    0.70
   1 -11   0    8.04    2.42
   1 -11   0    7.73    1.92
   1 -11   0    7.63    1.55
   1 -11   0    8.61    0.72
   1 -11   1  232.22    4.10
   1 -11   1  224.79    6.27
   1 -11   1  226.79    3.97
   1 -11   1  229.69    6.50
   1 -11   1  233.36    6.38
   1 -11   1  217.65    3.99
   1 -11   2    0.20    0.97
   1 -11   2    0.02    0.59
   1 -11   2   -0.05    1.26
   1 -11   2    1.56    1.63
   1 -11   2    1.24    2.15
   1 -11   2    0.50    0.51
   1 -11   2    0.07    0.58
   1 -11   3  225.54    6.41
   1 -11   3  223.93    6.47
   1 -11   3  226.93    6.37
   1 -11   3  219.21    4.19
   1 -11   3  220.73    4.09
   1 -11   3  226.47    4.11
   1 -11   3  227.42    4.25
   1 -11   3  243.29    4.28
   1 -11   4   21.11    1.09
   1 -11   4   21.43    1.25
   1 -11   4   18.47    1.02
   1 -11   4   18.41    2.61
   1 -11   4   16.10    2.09
   1 -11   4   17.62    2.02
   1 -11   4   18.22    1.12
   1 -11   4   21.01    1.31
   1 -11   5   13.66    0.91
   1 -11   5   11.54    1.86
   1 -11   5   16.05    1.25
   1 -11   5   14.58    0.96
   1 -11   5   14.39    1.13
   1 -11   6   82.52    3.79
   1 -11   6   79.57    2.10
   1 -11   6   79.98    2.25
   1 -11   6   89.95    2.29
   1 -11   6   93.96    2.37
   1 -11   7  185.07    3.74
   1 -11   7  179.58    3.68
   1 -11   7  182.92    3.55
   1 -11   8   13.25    1.06
   1 -11   8   14.06    1.03
   1 -11   9  153.74    3.17
   1 -11  10   60.36    1.65
   1 -11  10   63.86    1.77
   1 -11  11   54.03    1.40
   1 -11  11   57.10    1.52
   1 -11  12   65.16    1.36
   1 -11  12   42.91    1.12
   1 -11  13   24.98    0.83
   1 -10 -16    1.48    0.30
   1 -10 -16    1.53    0.32
   1 -10 -15   37.77    1.07
   1 -10 -15   39.40    1.10
   1 -10 -14    0.89    0.77
   1 -10 -14    0.75    0.60
   1 -10 -14    0.77    0.57
   1 -10 -14    0.63    0.70
   1 -10 -13   60.94    1.71
   1 -10 -13   65.75    1.71
   1 -10 -13   64.47    1.80
   1 -10 -13   58.90    1.69
   1 -10 -12    3.87    0.97
   1 -10 -12    3.85    0.80
   1 -10 -12    4.14    0.79
   1 -10 -11   22.78    1.20
   1 -10 -11   23.71    1.31
   1 -10 -11   24.45    1.35
   1 -10 -11   22.92    1.25
   1 -10 -10    1.49    0.84
   1 -10 -10    1.32    0.79
   1 -10 -10    1.97    0.95
   1 -10 -10    1.57    0.97
   1 -10  -9   60.69    1.84
   1 -10  -9   61.00    1.80
   1 -10  -9   63.66    1.91
   1 -10  -9   60.54    1.90
   1 -10  -8    9.47    0.98
   1 -10  -8    8.61    0.92
   1 -10  -7   19.49    1.08
   1 -10  -7   21.49    2.48
   1 -10  -7   19.55    1.13
   1 -10  -7   20.38    1.20
   1 -10  -6  103.36    2.36
   1 -10  -6  110.37    2.45
   1 -10  -6  109.80    4.24
   1 -10  -6  106.53    4.47
   1 -10  -5  150.44    2.94
   1 -10  -5  157.06    3.05
   1 -10  -5  160.82    5.38
   1 -10  -5  163.71    5.07
   1 -10  -4  168.51    3.20
   1 -10  -4  174.45    3.24
   1 -10  -4  176.51    5.59
   1 -10  -4  175.30    5.24
   1 -10  -3  207.36    3.61
   1 -10  -3  210.76    3.56
   1 -10  -3  222.55    5.84
   1 -10  -3  206.88    5.96
   1 -10  -2  399.36    8.66
   1 -10  -2  418.00    8.44
   1 -10  -1   32.44    1.11
   1 -10  -1   28.60    1.11
   1 -10  -1   29.09    1.13
   1 -10  -1   28.55    2.38
   1 -10  -1   29.10    2.82
   1 -10  -1   30.20    1.10
   1 -10  -1   28.17    1.19
   1 -10   0  238.53    4.01
   1 -10   0  224.87    3.92
   1 -10   0  236.63    4.06
   1 -10   0  245.87    6.34
   1 -10   0  238.69    6.36
   1 -10   0  239.81    4.14
   1 -10   1    9.55    0.75
   1 -10   1    8.57    0.68
   1 -10   1    7.94    0.95
   1 -10   1   10.18    1.56
   1 -10   1    9.47    0.74
   1 -10   1    8.49    2.27
   1 -10   1    8.71    1.76
   1 -10   2  159.05    5.08
   1 -10   2  156.21    5.05
   1 -10   2  158.66    4.94
   1 -10   2  155.20    3.15
   1 -10   2  153.92    2.94
   1 -10   2  174.17    3.25
   1 -10   2  162.94    3.14
   1 -10   2  169.13    3.17
   1 -10   2  156.14    3.05
   1 -10   2  169.44    3.21
   1 -10   3   14.29    0.92
   1 -10   3   14.12    1.03
   1 -10   3   14.23    0.90
   1 -10   3   15.54    1.98
   1 -10   3   15.90    2.39
   1 -10   3   16.09    1.82
   1 -10   3   14.41    0.90
   1 -10   3   15.36    1.01
   1 -10   3   16.08    1.14
   1 -10   4  366.12    5.94
   1 -10   4  349.27    5.83
   1 -10   4  357.32    5.78
   1 -10   4  347.87    8.24
   1 -10   4  345.43    8.19
   1 -10   4  337.44    7.90
   1 -10   4  348.72    5.93
   1 -10   4  366.60    5.92
   1 -10   5   21.74    1.21
   1 -10   5   20.85    1.10
   1 -10   5   19.70    1.00
   1 -10   5   19.15    2.39
   1 -10   5   19.64    2.14
   1 -10   5   18.87    1.12
   1 -10   5   20.67    1.28
   1 -10   6  137.25    2.95
   1 -10   6  128.76    2.84
   1 -10   6  131.17    2.73
   1 -10   6  131.13    2.92
   1 -10   6  143.73    3.01
   1 -10   6  121.43    4.54
   1 -10   7   32.99    1.45
   1 -10   7   33.87    1.38
   1 -10   7   32.62    2.48
   1 -10   7   37.54    1.53
   1 -10   8   70.90    2.05
   1 -10   8   70.50    2.03
   1 -10   8   70.73    1.97
   1 -10   8   75.95    2.02
   1 -10   9   11.50    1.01
   1 -10   9   10.88    0.90
   1 -10   9   14.15    1.01
   1 -10  10   26.87    1.15
   1 -10  10   25.68    1.18
   1 -10  10   25.63    1.24
   1 -10  11   12.15    0.86
   1 -10  11   12.58    0.93
   1 -10  12   85.25    1.82
   1 -10  12   69.03    1.63
   1 -10  13   21.93    0.73
   1 -10  13   26.54    0.90
   1 -10  14    5.67    0.49
   1  -9 -16   36.94    0.95
   1  -9 -16   38.88    0.97
   1  -9 -16   38.49    0.97
   1  -9 -15    4.87    0.63
   1  -9 -15    4.84    0.62
   1  -9 -15    4.66    0.69
   1  -9 -15    4.70    0.80
   1  -9 -14  141.12    2.82
   1  -9 -14  146.86    2.77
   1  -9 -14  133.78    2.80
   1  -9 -14  155.51    2.89
   1  -9 -13    8.03    1.02
   1  -9 -12  242.32    4.47
   1  -9 -12  253.79    4.38
   1  -9 -12  259.91    4.54
   1  -9 -12  239.18    4.50
   1  -9 -11    8.88    0.97
   1  -9 -11    9.12    1.16
   1  -9 -11    9.07    1.09
   1  -9 -11    8.93    1.02
   1  -9 -10   74.83    2.08
   1  -9 -10   76.84    2.09
   1  -9 -10   75.51    2.11
   1  -9 -10   75.09    2.14
   1  -9  -9   13.97    1.05
   1  -9  -9   14.58    1.10
   1  -9  -8   54.94    1.69
   1  -9  -8   55.32    1.75
   1  -9  -8   54.55    1.74
   1  -9  -7  629.74    9.68
   1  -9  -7  636.37    9.76
   1  -9  -6  153.13    3.02
   1  -9  -6  163.10    3.10
   1  -9  -6  161.44    5.28
   1  -9  -6  164.87    4.84
   1  -9  -5  146.58    2.78
   1  -9  -5  148.51    2.89
   1  -9  -5  149.09    4.94
   1  -9  -5  150.42    4.65
   1  -9  -4   16.26    0.85
   1  -9  -4   14.46    0.96
   1  -9  -4   14.07    1.98
   1  -9  -4   18.12    2.33
   1  -9  -3   12.06    0.80
   1  -9  -3   11.92    0.88
   1  -9  -3   11.18    2.14
   1  -9  -3   10.17    1.74
   1  -9  -2    4.71    0.71
   1  -9  -2    4.12    0.73
   1  -9  -2    5.53    1.53
   1  -9  -2    5.56    2.14
   1  -9  -1  102.41    2.10
   1  -9  -1   99.80    2.18
   1  -9   0  156.72    2.83
   1  -9   0  142.69    2.66
   1  -9   0  145.11    2.84
   1  -9   0  160.33    4.81
   1  -9   0  153.53    4.65
   1  -9   1  347.16    5.29
   1  -9   1  339.25    5.35
   1  -9   1  359.27    7.62
   1  -9   1  359.16    7.51
   1  -9   2   50.67    2.75
   1  -9   2   49.97    2.97
   1  -9   2   52.39    2.63
   1  -9   2   53.75    1.46
   1  -9   2   51.43    1.59
   1  -9   3  425.28    6.36
   1  -9   3  402.55    6.31
   1  -9   3  408.96    6.27
   1  -9   3  379.24    8.34
   1  -9   3  378.88    8.38
   1  -9   3  371.05    8.13
   1  -9   3  391.61    6.24
   1  -9   3  383.71    6.32
   1  -9   3  396.64    6.34
   1  -9   4    7.73    0.79
   1  -9   4    8.50    0.88
   1  -9   4    8.95    0.74
   1  -9   4   10.06    2.08
   1  -9   4   11.19    1.60
   1  -9   4   10.80    0.81
   1  -9   4   11.56    0.90
   1  -9   4   10.20    0.98
   1  -9   5  176.03    3.32
   1  -9   5  178.97    3.37
   1  -9   5  166.69    3.22
   1  -9   5  170.37    3.18
   1  -9   5  153.91    4.76
   1  -9   5  160.75    3.30
   1  -9   5  171.36    3.33
   1  -9   6   56.44    1.77
   1  -9   6   56.53    1.76
   1  -9   6   61.04    1.65
   1  -9   6   60.79    1.73
   1  -9   6   63.80    1.84
   1  -9   6   64.88    1.87
   1  -9   7  207.87    4.02
   1  -9   7  208.29    4.03
   1  -9   7  218.39    3.97
   1  -9   7  208.11    4.02
   1  -9   7  195.69    3.80
   1  -9   7  214.22    3.79
   1  -9   7  222.49    3.97
   1  -9   8   15.03    1.02
   1  -9   8   13.73    0.86
   1  -9   8   12.42    1.03
   1  -9   8   13.10    1.10
   1  -9   8   15.77    1.08
   1  -9   9  144.98    3.18
   1  -9   9  153.27    3.14
   1  -9   9  146.31    3.01
   1  -9   9  154.88    3.23
   1  -9  10   21.90    1.19
   1  -9  10   22.27    1.18
   1  -9  11   54.24    1.70
   1  -9  11   55.27    1.64
   1  -9  11   64.00    1.77
   1  -9  11   64.42    1.86
   1  -9  12   32.43    1.19
   1  -9  12   26.49    1.10
   1  -9  13   40.77    1.22
   1  -9  13   35.72    1.13
   1  -9  14   25.81    0.82
   1  -9  14   34.73    1.04
   1  -9  15    3.46    0.41
   1  -9  15    2.00    0.32
   1  -8 -17   57.55    1.08
   1  -8 -17   59.37    1.07
   1  -8 -16    2.01    0.47
   1  -8 -16    1.85    0.50
   1  -8 -16    1.57    0.49
   1  -8 -15  172.09    3.13
   1  -8 -15  181.29    3.12
   1  -8 -15  184.20    3.16
   1  -8 -15  164.96    3.15
   1  -8 -14    0.18    0.68
   1  -8 -14    0.63    0.94
   1  -8 -14    0.15    0.65
   1  -8 -14   -0.03    0.81
   1  -8 -14    0.60    0.76
   1  -8 -13  185.78    3.60
   1  -8 -13  181.57    3.48
   1  -8 -13  175.66    3.60
   1  -8 -12    8.45    0.97
   1  -8 -12    8.47    1.18
   1  -8 -12    7.97    1.08
   1  -8 -12    8.30    0.98
   1  -8 -11   84.92    2.25
   1  -8 -11   83.93    2.25
   1  -8 -11   83.03    2.24
   1  -8 -11   85.45    2.29
   1  -8 -10    6.86    0.93
   1  -8 -10    5.77    1.14
   1  -8 -10    5.74    0.95
   1  -8  -9  453.48    7.34
   1  -8  -9  459.19    7.41
   1  -8  -9  475.15    7.33
   1  -8  -8    5.34    0.81
   1  -8  -8    5.88    0.85
   1  -8  -8    5.05    0.92
   1  -8  -7  196.09    3.62
   1  -8  -7  191.28    3.65
   1  -8  -6  121.26    2.47
   1  -8  -6  113.60    2.39
   1  -8  -6  122.85    3.94
   1  -8  -5  399.26    6.17
   1  -8  -5  395.22    8.56
   1  -8  -5  400.28    8.01
   1  -8  -4  368.54    5.70
   1  -8  -4  364.17    7.95
   1  -8  -3    3.39    0.69
   1  -8  -2   55.47    1.42
   1  -8  -1   64.12    1.52
   1  -8   0  291.37    4.52
   1  -8   1   14.94    0.76
   1  -8   1   13.18    0.75
   1  -8   2  588.80   10.62
   1  -8   2  590.14    8.65
   1  -8   3   23.67    0.94
   1  -8   3   24.57    1.83
   1  -8   3   23.77    1.10
   1  -8   4  385.57    8.14
   1  -8   4  410.51    6.13
   1  -8   4  371.45    6.07
   1  -8   4  386.44    6.18
   1  -8   4  395.64    6.16
   1  -8   5   11.11    1.89
   1  -8   5   10.46    0.86
   1  -8   5   11.54    0.92
   1  -8   5   10.99    0.75
   1  -8   5   10.24    0.87
   1  -8   5   10.42    0.87
   1  -8   5    9.73    0.96
   1  -8   6  255.47    4.30
   1  -8   6  247.76    4.45
   1  -8   6  250.05    4.26
   1  -8   6  238.39    4.27
   1  -8   6  249.83    4.24
   1  -8   6  243.67    4.40
   1  -8   6  248.82    4.33
   1  -8   7  184.64    3.50
   1  -8   7  177.92    3.65
   1  -8   7  181.61    3.43
   1  -8   7  192.66    3.67
   1  -8   7  187.71    3.46
   1  -8   7  177.14    3.51
   1  -8   7  195.59    3.70
   1  -8   7  203.55    3.57
   1  -8   8  167.33    3.23
   1  -8   8  173.38    3.49
   1  -8   8  170.85    3.34
   1  -8   8  175.53    3.31
   1  -8   8  174.89    3.28
   1  -8   8  165.70    3.36
   1  -8   9   30.52    1.19
   1  -8   9   28.60    1.30
   1  -8   9   29.90    1.36
   1  -8   9   28.74    1.14
   1  -8  10  119.50    2.65
   1  -8  10  115.16    2.63
   1  -8  10  124.72    2.82
   1  -8  11    0.32    0.72
   1  -8  11    0.38    0.71
   1  -8  11    0.61    0.75
   1  -8  11    1.37    0.71
   1  -8  11    0.52    0.74
   1  -8  12   95.15    2.38
   1  -8  12  104.74    2.34
   1  -8  13   60.30    1.74
   1  -8  13   80.24    1.83
   1  -8  14   31.83    1.09
   1  -8  14   38.55    1.16
   1  -8  15   58.62    1.29
   1  -8  15   49.58    1.24
   1  -8  16    5.39    0.36
   1  -7 -17   10.74    0.50
   1  -7 -17   10.05    0.51
   1  -7 -16   81.73    1.71
   1  -7 -16   80.96    1.69
   1  -7 -16   78.82    1.74
   1  -7 -15    5.32    0.74
   1  -7 -15    4.53    0.94
   1  -7 -15    3.29    0.67
   1  -7 -15    4.56    0.79
   1  -7 -15    4.29    0.76
   1  -7 -14  271.27    4.61
   1  -7 -14  294.86    4.82
   1  -7 -13   50.08    1.67
   1  -7 -13   53.37    1.74
   1  -7 -13   49.25    1.72
   1  -7 -13   52.16    1.73
   1  -7 -12   64.38    1.98
   1  -7 -12   66.55    1.95
   1  -7 -12   67.17    1.99
   1  -7 -11    9.92    1.02
   1  -7 -11   10.51    1.25
   1  -7 -11   10.72    1.05
   1  -7 -10  247.35    4.48
   1  -7 -10  244.59    4.38
   1  -7 -10  243.08    4.52
   1  -7 -10  254.18    4.44
   1  -7  -9   28.03    1.26
   1  -7  -9   29.56    1.30
   1  -7  -9   27.53    1.32
   1  -7  -9   25.39    1.01
   1  -7  -8  549.17    8.40
   1  -7  -8  553.68    8.46
   1  -7  -8  534.94    8.20
   1  -7  -7  179.46    3.30
   1  -7  -7  183.11    3.30
   1  -7  -7  181.24    3.18
   1  -7  -7  180.58    3.35
   1  -7  -6  165.18    3.00
   1  -7  -6  163.26    2.90
   1  -7  -5  139.88    2.59
   1  -7  -5  129.09    4.17
   1  -7  -4    4.07    0.70
   1  -7  -4    4.06    1.75
   1  -7  -3    4.87    0.71
   1  -7  -3    4.77    1.41
   1  -7  -3    4.76    1.90
   1  -7  -2   88.83    1.79
   1  -7  -2   89.00    3.43
   1  -7  -2   87.21    3.10
   1  -7  -1  368.07    5.52
   1  -7  -1  370.56    7.30
   1  -7   0  210.70    5.33
   1  -7   0  217.16    4.91
   1  -7   1  114.28    2.08
   1  -7   1  106.76    3.70
   1  -7   1  116.39    3.43
   1  -7   2  170.27    2.90
   1  -7   2  162.46    4.41
   1  -7   3  554.17    8.11
   1  -7   3  554.13    9.71
   1  -7   4  172.73    3.11
   1  -7   4  184.56    3.21
   1  -7   4  173.15    4.63
   1  -7   4  172.82    4.47
   1  -7   5 1223.47   17.01
   1  -7   5 1195.53   17.10
   1  -7   6   82.46    1.91
   1  -7   6   84.69    2.04
   1  -7   6   87.25    1.99
   1  -7   7  108.89    2.29
   1  -7   7  105.30    2.23
   1  -7   7  106.83    2.45
   1  -7   7  102.34    2.39
   1  -7   7  105.92    2.33
   1  -7   7  102.71    2.44
   1  -7   7  110.86    2.33
   1  -7   8    6.50    0.69
   1  -7   8    7.37    0.87
   1  -7   8    6.84    0.92
   1  -7   8    5.98    0.74
   1  -7   8    5.85    0.87
   1  -7   8    6.81    0.85
   1  -7   9   33.04    1.45
   1  -7   9   36.27    1.32
   1  -7   9   34.85    1.43
   1  -7   9   35.06    1.23
   1  -7   9   38.55    1.42
   1  -7  10    3.89    0.88
   1  -7  10    3.97    0.69
   1  -7  10    3.69    0.93
   1  -7  11  138.66    3.11
   1  -7  11  138.86    2.84
   1  -7  11  140.20    2.98
   1  -7  12   79.06    1.99
   1  -7  12   80.02    2.12
   1  -7  13   36.46    1.31
   1  -7  14   15.75    0.97
   1  -7  14   17.53    0.88
   1  -7  15   47.95    1.26
   1  -7  15   36.25    1.14
   1  -7  16   12.03    0.50
   1  -7  16   18.44    0.72
   1  -6 -17   20.49    0.72
   1  -6 -17   20.59    0.69
   1  -6 -16   19.85    0.89
   1  -6 -16   20.98    0.87
   1  -6 -16   22.97    0.96
   1  -6 -16   20.73    0.92
   1  -6 -15   94.58    2.22
   1  -6 -15   98.55    2.17
   1  -6 -15   97.77    2.10
   1  -6 -15   97.36    2.15
   1  -6 -15   94.25    2.12
   1  -6 -15   96.78    2.13
   1  -6 -14   83.37    2.09
   1  -6 -14   83.53    2.11
   1  -6 -14   83.23    2.18
   1  -6 -13   22.18    1.19
   1  -6 -13   22.38    1.36
   1  -6 -13   22.18    1.26
   1  -6 -13   22.53    1.29
   1  -6 -12    4.51    0.89
   1  -6 -12    5.61    0.99
   1  -6 -12    5.59    1.21
   1  -6 -11   54.81    1.79
   1  -6 -11   53.67    1.83
   1  -6 -11   53.33    1.77
   1  -6 -10   37.65    1.46
   1  -6 -10   40.23    1.61
   1  -6 -10   41.25    1.52
   1  -6 -10   38.64    1.23
   1  -6 -10   36.87    1.47
   1  -6  -9  413.72    6.51
   1  -6  -9  411.83    6.42
   1  -6  -9  391.27    6.25
   1  -6  -9  409.15    6.55
   1  -6  -8   33.10    1.21
   1  -6  -8   29.29    1.02
   1  -6  -8   31.59    1.26
   1  -6  -8   33.39    1.24
   1  -6  -7  312.05    4.82
   1  -6  -7  307.33    4.91
   1  -6  -7  297.46    4.96
   1  -6  -6    6.40    0.55
   1  -6  -6    5.82    0.78
   1  -6  -6    6.09    1.64
   1  -6  -5 1020.97   14.43
   1  -6  -5 1033.45   14.39
   1  -6  -5 1057.49   15.94
   1  -6  -4   35.66    1.12
   1  -6  -4   36.86    1.00
   1  -6  -4   34.51    2.25
   1  -6  -4   36.66    2.15
   1  -6  -3  928.69   12.91
   1  -6  -3  931.36   14.76
   1  -6  -3  898.45   14.43
   1  -6  -2    2.93    0.62
   1  -6  -2    3.35    1.26
   1  -6  -2    2.15    2.04
   1  -6  -1  805.04   11.21
   1  -6  -1  826.14   12.92
   1  -6   0  840.32   11.76
   1  -6   0  807.35   14.09
   1  -6   1  413.58    6.08
   1  -6   1  412.71    7.96
   1  -6   2  889.44   13.73
   1  -6   2  881.72   12.20
   1  -6   3   53.31    1.27
   1  -6   3   56.76    2.27
   1  -6   3   52.05    2.46
   1  -6   4  196.80    3.32
   1  -6   4  199.93    3.38
   1  -6   4  194.28    4.51
   1  -6   5  225.05    3.79
   1  -6   5  214.21    4.82
   1  -6   6  388.56    6.13
   1  -6   7   26.81    1.16
   1  -6   7   25.46    1.15
   1  -6   7   27.37    1.10
   1  -6   8  197.88    3.71
   1  -6   8  204.66    3.56
   1  -6   8  197.40    3.53
   1  -6   9    3.47    0.72
   1  -6   9    2.62    0.78
   1  -6   9    2.91    0.75
   1  -6   9    2.81    0.59
   1  -6  10  208.01    3.74
   1  -6  10  208.60    4.03
   1  -6  10  202.85    3.84
   1  -6  11    5.07    0.88
   1  -6  11    4.58    0.83
   1  -6  11    6.70    0.79
   1  -6  12  144.16    2.80
   1  -6  12  141.62    2.99
   1  -6  13   50.25    1.58
   1  -6  13   42.31    1.57
   1  -6  14   90.91    2.09
   1  -6  14   77.85    1.95
   1  -6  15   11.66    0.88
   1  -6  15   13.18    0.79
   1  -6  16   11.59    0.71
   1  -6  16   12.17    0.68
   1  -5 -17   19.06    0.70
   1  -5 -17   19.59    0.76
   1  -5 -17   21.25    0.78
   1  -5 -16   34.30    1.13
   1  -5 -16   34.45    1.10
   1  -5 -16   36.12    1.19
   1  -5 -16   36.49    1.20
   1  -5 -15   11.29    0.90
   1  -5 -15   14.81    1.11
   1  -5 -15   12.45    0.89
   1  -5 -15   11.26    0.84
   1  -5 -15   13.67    1.02
   1  -5 -15   13.83    0.94
   1  -5 -14   96.82    2.44
   1  -5 -14  105.64    2.41
   1  -5 -14   96.81    2.34
   1  -5 -14  100.96    2.35
   1  -5 -14  108.01    2.38
   1  -5 -13   16.70    1.11
   1  -5 -13   16.79    1.19
   1  -5 -13   18.26    1.19
   1  -5 -13   16.63    1.30
   1  -5 -12   34.85    1.43
   1  -5 -12   32.23    1.58
   1  -5 -12   33.99    1.51
   1  -5 -12   30.28    1.42
   1  -5 -11   33.61    1.41
   1  -5 -11   34.11    1.58
   1  -5 -11   33.84    1.44
   1  -5 -11   34.09    1.44
   1  -5 -10  160.32    3.15
   1  -5 -10  159.61    3.07
   1  -5 -10  151.89    3.09
   1  -5 -10  156.26    3.16
   1  -5  -9   75.22    1.90
   1  -5  -9   80.60    1.93
   1  -5  -9   75.27    1.94
   1  -5  -9   72.93    1.92
   1  -5  -9   73.73    1.72
   1  -5  -8  539.31    8.03
   1  -5  -8  527.56    8.06
   1  -5  -8  549.64    7.96
   1  -5  -8  515.14    7.85
   1  -5  -7   11.15    0.86
   1  -5  -7    9.50    0.61
   1  -5  -6  923.59   13.23
   1  -5  -6  914.93   14.26
   1  -5  -5  577.31    8.34
   1  -5  -5  583.88    8.37
   1  -5  -5  598.24    9.56
   1  -5  -4    9.33    0.73
   1  -5  -4   10.19    0.56
   1  -5  -4   10.23    1.47
   1  -5  -4    9.76    1.72
   1  -5  -3   21.61    0.83
   1  -5  -3   20.01    0.69
   1  -5  -3   19.74    2.04
   1  -5  -3   21.58    1.66
   1  -5  -2  951.07   13.17
   1  -5  -2  961.16   13.17
   1  -5  -2  927.58   14.64
   1  -5  -2  952.42   14.64
   1  -5  -1  107.81    3.86
   1  -5  -1  111.16    2.99
   1  -5   0  710.76   11.95
   1  -5   0  700.25   11.08
   1  -5   1  480.93    8.40
   1  -5   2   45.85    1.82
   1  -5   2   45.87    1.07
   1  -5   2   42.56    2.28
   1  -5   3  250.49    3.89
   1  -5   3  262.41    5.18
   1  -5   3  250.75    5.03
   1  -5   4  420.74    6.34
   1  -5   4  413.94    7.36
   1  -5   4  429.47    7.83
   1  -5   5  111.14    2.18
   1  -5   5  107.93    3.02
   1  -5   6    7.00    0.70
   1  -5   6    6.79    1.34
   1  -5   7  341.82    5.50
   1  -5   8   50.06    1.53
   1  -5   8   49.03    1.52
   1  -5   9  248.16    4.46
   1  -5   9  257.21    4.52
   1  -5  10  102.79    2.42
   1  -5  10   99.59    2.48
   1  -5  11  420.35    6.40
   1  -5  11  382.35    6.59
   1  -5  12   99.10    2.22
   1  -5  12   93.68    2.32
   1  -5  13  279.04    4.63
   1  -5  13  226.47    4.28
   1  -5  14   18.24    1.07
   1  -5  15   82.88    1.90
   1  -5  15   77.93    1.93
   1  -5  16   19.02    0.75
   1  -5  16   13.86    0.74
   1  -5  17   15.99    0.65
   1  -5  17   20.57    0.72
   1  -4 -17   17.28    0.75
   1  -4 -17   16.15    0.67
   1  -4 -17   17.69    0.80
   1  -4 -16   69.27    1.75
   1  -4 -16   70.53    1.67
   1  -4 -15   98.55    2.23
   1  -4 -15   98.46    2.22
   1  -4 -14    5.11    0.89
   1  -4 -14    4.97    1.08
   1  -4 -14    5.31    0.81
   1  -4 -14    4.73    0.87
   1  -4 -14    4.84    1.01
   1  -4 -13   91.39    2.29
   1  -4 -13   92.24    2.41
   1  -4 -13   86.24    2.21
   1  -4 -13   91.51    2.31
   1  -4 -12   66.39    2.01
   1  -4 -12   63.44    1.90
   1  -4 -12   65.32    2.01
   1  -4 -11  116.65    2.65
   1  -4 -11  117.94    2.60
   1  -4 -11  115.86    2.65
   1  -4 -10   28.84    1.24
   1  -4 -10   28.76    1.40
   1  -4 -10   27.67    1.04
   1  -4 -10   28.06    1.24
   1  -4  -9  213.15    3.76
   1  -4  -9  214.85    3.79
   1  -4  -6   17.25    1.48
   1  -4  -5  411.68    6.91
   1  -4  -4   58.76    1.29
   1  -4  -4   63.08    2.34
   1  -4  -4   62.46    2.26
   1  -4  -4   57.75    1.21
   1  -4  -3  950.35   14.54
   1  -4  -3  955.92   14.17
   1  -4  -2  695.61   10.85
   1  -4  -2  688.32   10.73
   1  -4  -1  344.94    6.29
   1  -4  -1  331.36    5.88
   1  -4   0  732.71   11.02
   1  -4   0  659.56   10.51
   1  -4   1 1350.28   19.55
   1  -4   2 1169.25   17.08
   1  -4   2 1183.03   17.11
   1  -4   3  435.31    7.34
   1  -4   3  429.55    7.12
   1  -4   4  362.40    6.39
   1  -4   4  377.03    6.84
   1  -4   4  365.65    5.56
   1  -4   5   12.19    0.71
   1  -4   6  215.85    4.21
   1  -4   6  212.65    3.67
   1  -4   7    3.00    0.65
   1  -4   8  870.07   12.54
   1  -4   8  870.38   12.41
   1  -4   8  865.79   12.58
   1  -4   9    8.59    0.86
   1  -4   9    8.05    0.85
   1  -4  10  171.83    3.45
   1  -4  10  172.58    3.50
   1  -4  11    0.35    0.70
   1  -4  11    0.26    0.72
   1  -4  12   39.55    1.56
   1  -4  12   42.25    1.54
   1  -4  13    1.33    0.77
   1  -4  13    1.07    0.70
   1  -4  14  155.54    3.02
   1  -4  14  115.95    2.66
   1  -4  15    8.92    0.87
   1  -4  15    6.98    0.75
   1  -4  16   60.36    1.46
   1  -4  16   53.40    1.49
   1  -4  17    2.78    0.45
   1  -4  17    2.37    0.52
   1  -4  17    2.20    0.43
   1  -3 -17    9.89    0.65
   1  -3 -17   10.98    0.74
   1  -3 -16   45.25    1.29
   1  -3 -16   45.23    1.41
   1  -3 -16   46.31    1.39
   1  -3 -15   17.74    1.16
   1  -3 -14    8.79    0.96
   1  -3 -14    7.54    1.08
   1  -3 -14    8.36    0.89
   1  -3 -14    7.60    0.86
   1  -3 -14    6.94    1.09
   1  -3 -14    6.10    0.88
   1  -3 -13   59.95    1.87
   1  -3 -13   60.85    1.77
   1  -3 -13   57.69    1.91
   1  -3 -13   58.75    1.80
   1  -3 -12  162.61    3.32
   1  -3 -12  171.35    3.55
   1  -3 -12  168.48    3.39
   1  -3 -11   31.03    1.49
   1  -3 -11   31.63    1.41
   1  -3 -11   30.48    1.32
   1  -3 -10  220.62    3.95
   1  -3 -10  227.92    4.06
   1  -3  -9    5.01    0.73
   1  -3  -9    5.16    0.93
   1  -3  -9    5.08    0.73
   1  -3  -8  213.09    3.59
   1  -3  -6  802.82   11.74
   1  -3  -5  110.56    2.61
   1  -3  -4  545.15    8.41
   1  -3  -3  242.02    4.45
   1  -3  -3  245.81    4.73
   1  -3  -2   51.44    2.02
   1  -3  -2   51.84    1.88
   1  -3  -1  125.32    2.97
   1  -3  -1  122.05    2.75
   1  -3   0   22.49    1.77
   1  -3   0   21.36    1.24
   1  -3   1   31.69    1.80
   1  -3   2 1000.66   14.71
   1  -3   2 1043.52   14.76
   1  -3   3    6.09    0.93
   1  -3   3    7.41    1.42
   1  -3   4  420.11    6.74
   1  -3   5  310.57    5.30
   1  -3   5  313.74    4.76
   1  -3   6   29.46    0.98
   1  -3   6   25.17    1.35
   1  -3   7  512.38    7.62
   1  -3   8  426.96    6.60
   1  -3   9  491.91    7.71
   1  -3   9  489.30    7.49
   1  -3  10    9.05    0.90
   1  -3  10    7.61    0.86
   1  -3  10    7.58    0.80
   1  -3  11   52.24    1.68
   1  -3  11   48.00    1.61
   1  -3  13  182.49    3.47
   1  -3  13  142.74    3.39
   1  -3  14    0.07    0.74
   1  -3  14    0.16    0.67
   1  -3  15  212.92    3.73
   1  -3  15  205.06    3.56
   1  -3  16   12.98    0.80
   1  -3  17   33.88    0.97
   1  -3  17   29.20    1.00
   1  -3  18    0.31    0.29
   1  -2 -18   43.55    0.87
   1  -2 -17   10.64    0.76
   1  -2 -16   77.77    1.86
   1  -2 -16   80.02    1.85
   1  -2 -16   74.08    1.71
   1  -2 -14   66.99    1.89
   1  -2 -14   64.60    1.94
   1  -2 -14   68.18    1.96
   1  -2 -14   65.65    1.86
   1  -2 -14   66.54    1.86
   1  -2 -13  146.20    3.03
   1  -2 -13  155.11    3.28
   1  -2 -13  147.11    3.10
   1  -2 -13  151.77    3.11
   1  -2 -13  152.51    3.11
   1  -2 -12   25.96    1.25
   1  -2 -12   24.68    1.34
   1  -2 -12   27.52    1.43
   1  -2 -11  140.82    2.93
   1  -2 -11  143.40    3.07
   1  -2 -11  134.44    2.85
   1  -2 -10   18.61    1.03
   1  -2 -10   17.65    1.09
   1  -2 -10   19.75    1.22
   1  -2  -9  244.23    4.16
   1  -2  -9  258.52    4.29
   1  -2  -5 1005.03   14.23
   1  -2  -4  136.99    2.75
   1  -2  -3  140.29    2.84
   1  -2  -2  267.11    4.70
   1  -2  -2  268.30    4.51
   1  -2  -1 1355.74   18.71
   1  -2  -1 1318.09   18.79
   1  -2   0  522.65    7.61
   1  -2   0  486.91    7.47
   1  -2   1  283.62    4.70
   1  -2   2  792.54   11.32
   1  -2   2  778.41   11.34
   1  -2   3   77.63    2.08
   1  -2   4  498.19    7.56
   1  -2   5   94.68    2.23
   1  -2   5  104.40    1.86
   1  -2   6  602.26    8.65
   1  -2   7   63.08    1.49
   1  -2   8  288.85    4.69
   1  -2   9  157.90    2.92
   1  -2   9  159.07    2.83
   1  -2   9  147.04    2.88
   1  -2   9  143.18    2.92
   1  -2  10  271.59    4.44
   1  -2  10  267.46    4.68
   1  -2  10  277.65    4.68
   1  -2  10  277.93    4.53
   1  -2  11    5.33    0.80
   1  -2  11    6.38    0.88
   1  -2  11    5.95    0.78
   1  -2  12  326.54    5.41
   1  -2  12  331.41    5.38
   1  -2  13   39.32    1.51
   1  -2  13   36.41    1.49
   1  -2  14  183.67    3.72
   1  -2  15    0.27    0.74
   1  -2  15    0.13    0.69
   1  -2  16   68.39    1.67
   1  -2  16   47.28    1.41
   1  -2  17    4.80    0.56
   1  -2  18   23.91    0.71
   1  -1 -17   59.06    1.37
   1  -1 -16   32.81    1.18
   1  -1 -16   30.90    1.05
   1  -1 -16   30.55    1.23
   1  -1 -14   76.71    2.11
   1  -1 -14   73.48    2.06
   1  -1 -14   75.01    1.96
   1  -1 -14   74.24    1.98
   1  -1 -13  163.62    3.15
   1  -1 -13  168.35    3.29
   1  -1 -13  167.53    3.50
   1  -1 -13  169.99    3.38
   1  -1 -13  160.40    3.32
   1  -1 -13  168.09    3.34
   1  -1 -12  106.85    2.51
   1  -1 -12  116.71    2.72
   1  -1 -12  110.14    2.60
   1  -1 -12  110.80    2.56
   1  -1 -12  111.50    2.56
   1  -1 -11   35.83    1.37
   1  -1 -11   35.27    1.46
   1  -1 -11   37.87    1.48
   1  -1 -10   96.94    2.19
   1  -1 -10   97.69    2.31
   1  -1 -10   90.18    2.13
   1  -1  -9  134.58    2.62
   1  -1  -9  127.74    2.68
   1  -1  -9  128.45    2.53
   1  -1  -7  127.06    3.26
   1  -1  -6  773.41   11.94
   1  -1  -5   71.07    2.11
   1  -1  -4  536.48    8.26
   1  -1  -3  223.50    4.08
   1  -1  -3  256.22    3.98
   1  -1  -2  351.59    5.45
   1  -1  -2  377.15    5.60
   1  -1  -1 1791.41   24.05
   1  -1  -1 1715.67   24.01
   1  -1   0 1207.31   16.90
   1  -1   0 1212.13   16.80
   1  -1   0 1239.94   16.93
   1  -1   1  197.82    3.09
   1  -1   1  201.68    3.43
   1  -1   2   96.26    1.87
   1  -1   3   24.65    0.85
   1  -1   3   22.49    1.37
   1  -1   6  214.46    3.41
   1  -1   7  248.27    3.97
   1  -1   8  123.26    2.35
   1  -1   8  122.47    2.40
   1  -1   9  291.45    4.83
   1  -1   9  304.34    4.88
   1  -1  10   80.08    1.77
   1  -1  10   74.58    1.90
   1  -1  10   80.54    1.85
   1  -1  10   81.61    2.00
   1  -1  11  187.56    3.53
   1  -1  11  196.17    3.57
   1  -1  12   15.04    1.04
   1  -1  12   14.60    0.94
   1  -1  12   15.32    1.08
   1  -1  13  247.21    4.63
   1  -1  13  255.31    4.56
   1  -1  14   74.13    2.07
   1  -1  14   74.08    2.14
   1  -1  14   69.01    1.97
   1  -1  15   94.64    2.31
   1  -1  16    5.26    0.73
   1  -1  16    3.00    0.67
   1  -1  17   85.01    1.69
   1  -1  17   52.39    1.33
   1  -1  18    8.28    0.61
   1   0 -17    1.24    0.57
   1   0 -17    1.01    0.61
   1   0 -16   59.51    1.58
   1   0 -15   82.72    2.06
   1   0 -14   37.74    1.50
   1   0 -14   37.53    1.40
   1   0 -14   41.13    1.58
   1   0 -13  277.77    4.93
   1   0 -13  269.28    4.74
   1   0 -13  262.66    4.73
   1   0 -13  268.21    4.74
   1   0 -12  128.20    2.78
   1   0 -12  133.52    3.00
   1   0 -12  135.99    2.91
   1   0 -12  129.11    2.83
   1   0 -12  133.33    2.85
   1   0 -11  352.48    5.82
   1   0 -11  361.43    5.92
   1   0 -11  364.07    5.98
   1   0 -11  370.28    6.00
   1   0 -10   11.35    1.03
   1   0 -10   11.72    0.96
   1   0 -10   11.57    0.87
   1   0 -10   10.42    1.38
   1   0  -9  318.41    5.05
   1   0  -9  325.98    5.19
   1   0  -7    8.29    1.08
   1   0  -6  173.26    3.76
   1   0  -5  494.67    7.96
   1   0  -4   34.88    1.50
   1   0  -4   30.88    0.85
   1   0  -3   62.79    1.68
   1   0  -3   58.62    1.33
   1   0  -2  287.40    4.54
   1   0  -2  282.49    4.38
   1   0  -1  541.67    7.73
   1   0  -1  526.79    7.71
   1   0   0  141.25    2.44
   1   0   1 2338.88   31.77
   1   0   2   71.49    1.50
   1   0   3  176.68    2.92
   1   0   4   36.71    0.96
   1   0   5  400.86    5.74
   1   0   6  180.43    2.91
   1   0   6  182.16    2.95
   1   0   7  969.03   13.53
   1   0   8 1136.95   15.88
   1   0   9   28.14    1.05
   1   0   9   31.54    1.18
   1   0  10  144.64    2.60
   1   0  10  141.14    2.70
   1   0  10  148.24    2.93
   1   0  11   79.65    1.84
   1   0  11   70.22    1.93
   1   0  11   80.23    2.05
   1   0  11   66.77    1.77
   1   0  12  123.59    2.78
   1   0  12  122.78    2.54
   1   0  12  125.99    2.77
   1   0  13    0.59    0.81
   1   0  14  309.28    5.33
   1   0  14  310.38    5.42
   1   0  15   23.34    1.21
   1   0  16   33.11    1.29
   1   0  17    0.96    0.57
   1   0  17    0.82    0.50
   1   1 -17   36.47    1.00
   1   1 -17   38.44    0.99
   1   1 -16   20.70    1.01
   1   1 -16   20.00    1.02
   1   1 -15   13.09    1.07
   1   1 -14   49.24    1.65
   1   1 -14   45.83    1.49
   1   1 -14   46.74    1.64
   1   1 -13  107.56    2.63
   1   1 -13  104.59    2.46
   1   1 -13  105.87    2.55
   1   1 -12   19.51    1.24
   1   1 -12   17.38    1.37
   1   1 -12   20.13    1.16
   1   1 -12   19.46    1.11
   1   1 -11  152.21    3.08
   1   1 -11  153.46    3.09
   1   1 -11  152.19    3.20
   1   1 -11  150.73    2.99
   1   1 -11  155.12    3.12
   1   1 -11  144.30    4.52
   1   1 -10  250.06    4.25
   1   1 -10  251.81    4.26
   1   1 -10  251.56    4.38
   1   1 -10  241.72    4.18
   1   1  -9   89.09    1.96
   1   1  -9   85.97    1.98
   1   1  -9   87.30    2.08
   1   1  -9   92.43    3.17
   1   1  -8  175.18    4.34
   1   1  -6  427.40    7.38
   1   1  -5  662.43    8.70
   1   1  -5  504.36    7.20
   1   1  -4   28.15    1.24
   1   1  -4   25.30    0.80
   1   1  -3 2949.56   39.13
   1   1  -3 2806.97   38.76
   1   1  -2 1536.37   21.31
   1   1  -2 1543.31   21.18
   1   1  -1    9.54    0.80
   1   1  -1    8.15    0.75
   1   1   0  616.21    8.65
   1   1   1    7.59    0.50
   1   1   3  116.02    2.13
   1   1   4  491.90    7.16
   1   1   5  430.07    6.27
   1   1   6 1413.45   17.09
   1   1   6 1144.38   16.88
   1   1   7  449.57    6.58
   1   1   8  461.48    6.86
   1   1   9  455.32    6.91
   1   1  10   28.71    0.98
   1   1  10   25.37    1.09
   1   1  10   27.09    1.17
   1   1  10   23.68    1.03
   1   1  11  191.39    3.30
   1   1  11  186.08    3.57
   1   1  11  186.38    3.52
   1   1  11  189.54    3.55
   1   1  12   61.82    1.85
   1   1  12   58.85    1.83
   1   1  13  105.02    2.53
   1   1  14   26.37    1.27
   1   1  14   29.68    1.37
   1   1  15  105.11    2.46
   1   1  15  125.13    2.72
   1   1  16   25.73    1.18
   1   1  17  152.72    2.62
   1   1  17  104.51    2.37
   1   1  18    0.78    0.33
   1   2 -17    1.17    0.51
   1   2 -17    0.73    0.48
   1   2 -16   51.59    1.38
   1   2 -16   50.87    1.37
   1   2 -15   23.80    1.19
   1   2 -15   23.53    1.20
   1   2 -14   29.45    1.36
   1   2 -14   31.28    1.33
   1   2 -13    8.37    0.99
   1   2 -13    6.17    1.11
   1   2 -13    8.25    0.88
   1   2 -12  252.59    4.48
   1   2 -12  252.76    4.49
   1   2 -12  262.03    4.69
   1   2 -11   38.76    1.40
   1   2 -11   39.98    1.59
   1   2 -11   40.07    2.44
   1   2 -11   40.04    1.53
   1   2 -10   66.11    1.78
   1   2 -10   67.67    1.79
   1   2 -10   65.23    1.87
   1   2 -10   69.24    1.90
   1   2 -10   68.66    3.01
   1   2  -9  715.59   10.38
   1   2  -9  725.22   10.41
   1   2  -9  680.88   10.20
   1   2  -9  703.17   10.30
   1   2  -9  738.74   10.55
   1   2  -9  682.08   12.31
   1   2  -8    2.02    0.81
   1   2  -8    2.08    0.99
   1   2  -6   98.52    2.79
   1   2  -6  107.05    1.81
   1   2  -5   51.02    1.79
   1   2  -5   44.42    1.09
   1   2  -4 1266.34   17.29
   1   2  -4 1157.51   16.63
   1   2  -3 1849.14   25.72
   1   2  -2    3.93    0.71
   1   2  -1 1731.09   23.73
   1   2   0    0.76    0.40
   1   2   1  528.31    7.36
   1   2   1  532.07    7.73
   1   2   6   37.69    0.95
   1   2   6   32.22    0.99
   1   2   7  583.40    8.38
   1   2   8  136.03    2.50
   1   2   9   17.68    0.89
   1   2  10   70.43    1.80
   1   2  10   66.82    1.72
   1   2  10   71.06    1.82
   1   2  11   83.27    1.94
   1   2  11   98.15    2.03
   1   2  11   88.69    2.06
   1   2  11   97.15    2.26
   1   2  11   95.14    2.25
   1   2  11   99.62    2.24
   1   2  11   83.45    1.95
   1   2  12  181.75    3.32
   1   2  12  182.71    3.55
   1   2  12  171.93    3.51
   1   2  12  182.53    3.52
   1   2  13   22.98    1.26
   1   2  14  106.47    2.58
   1   2  14  122.10    2.74
   1   2  15   15.65    1.03
   1   2  15   16.60    1.12
   1   2  16   36.13    1.25
   1   2  16   47.37    1.51
   1   2  17    8.26    0.74
   1   2  18   54.25    1.22
   1   3 -17   38.05    0.90
   1   3 -17   41.75    0.92
   1   3 -16    8.96    0.80
   1   3 -16    8.30    0.74
   1   3 -15   34.98    1.27
   1   3 -15   34.88    1.32
   1   3 -13   45.47    1.64
   1   3 -13   45.36    1.62
   1   3 -12   14.11    1.09
   1   3 -12   12.30    1.21
   1   3 -12   13.64    0.97
   1   3 -11   34.26    1.44
   1   3 -11   33.01    1.49
   1   3 -11   30.09    2.25
   1   3 -11   32.28    1.31
   1   3 -10   36.79    1.40
   1   3 -10   34.15    1.42
   1   3 -10   33.30    2.23
   1   3 -10   35.87    1.30
   1   3  -9   54.04    1.61
   1   3  -9   55.42    1.61
   1   3  -9   55.28    2.61
   1   3  -9   52.31    1.51
   1   3  -8  177.38    4.68
   1   3  -8  186.62    3.33
   1   3  -7  321.33    6.42
   1   3  -7  326.07    4.81
   1   3  -6  194.77    3.04
   1   3  -5  105.03    2.72
   1   3  -5   90.94    1.99
   1   3  -4  785.84   11.93
   1   3  -3  487.39    7.71
   1   3  -2 8709.95  117.19
   1   3  -1  998.37   14.14
   1   3   0 1180.84   16.93
   1   3   0 1303.90   17.37
   1   3   1  688.62    9.78
   1   3   1  743.61   10.35
   1   3   2  312.18    4.33
   1   3   6  662.61    9.36
   1   3   7   58.05    1.31
   1   3   7   57.69    1.34
   1   3   8    4.75    0.59
   1   3   8    5.43    0.63
   1   3   9  118.24    2.36
   1   3   9  118.54    2.40
   1   3   9  119.49    2.37
   1   3  10   19.05    0.83
   1   3  10   17.71    0.92
   1   3  10   16.57    0.91
   1   3  10   18.93    1.05
   1   3  10   17.93    0.96
   1   3  11   25.62    1.00
   1   3  11   33.83    1.14
   1   3  11   34.34    1.38
   1   3  11   29.04    1.17
   1   3  11   35.98    1.31
   1   3  11   29.08    1.07
   1   3  12   47.25    1.46
   1   3  12   37.51    1.28
   1   3  12   39.79    1.37
   1   3  12   43.52    1.64
   1   3  12   42.82    1.51
   1   3  13   76.99    2.22
   1   3  13   72.61    2.10
   1   3  14   28.43    1.33
   1   3  14   29.84    1.36
   1   3  15   97.99    2.37
   1   3  15  119.37    2.63
   1   3  16   14.92    0.88
   1   3  16   19.22    1.06
   1   3  18    0.26    0.42
   1   4 -17    0.71    0.33
   1   4 -17    0.87    0.25
   1   4 -16   44.18    1.16
   1   4 -16   41.36    1.10
   1   4 -15    2.38    0.81
   1   4 -15    3.28    0.87
   1   4 -15    2.24    0.75
   1   4 -14  131.84    2.66
   1   4 -13   16.76    1.18
   1   4 -12  153.81    5.07
   1   4 -12  173.87    3.35
   1   4 -11  176.10    3.53
   1   4 -11  172.10    3.37
   1   4 -11  167.10    5.14
   1   4 -10   81.19    2.13
   1   4 -10   81.20    2.06
   1   4 -10   84.15    3.46
   1   4 -10   77.80    1.97
   1   4  -9  271.89    4.59
   1   4  -9  261.58    6.37
   1   4  -9  275.92    4.62
   1   4  -8   81.20    1.95
   1   4  -8   76.98    1.81
   1   4  -8   77.16    2.93
   1   4  -8   77.28    1.84
   1   4  -7  180.00    4.46
   1   4  -6   29.92    0.81
   1   4  -6   28.89    1.64
   1   4  -5   71.24    2.38
   1   4  -4    2.77    0.92
   1   4  -3  697.39   10.73
   1   4  -2   10.69    1.06
   1   4  -1  306.84    5.09
   1   4   0    3.28    0.65
   1   4   0    3.68    0.78
   1   4   1  297.82    4.71
   1   4   1  317.31    5.22
   1   4   2   15.53    0.57
   1   4   2   18.54    1.09
   1   4   5  470.90    6.75
   1   4   6   57.63    1.28
   1   4   7  580.09    8.38
   1   4   8   11.43    0.73
   1   4   9   93.89    2.07
   1   4   9   85.58    1.98
   1   4  10   17.81    0.82
   1   4  10   18.37    0.94
   1   4  10   17.16    0.95
   1   4  10   19.69    1.07
   1   4  10   16.91    0.95
   1   4  11  345.30    5.16
   1   4  11  319.84    5.36
   1   4  11  311.45    5.22
   1   4  11  343.63    5.44
   1   4  11  327.51    5.41
   1   4  11  296.15    5.15
   1   4  12  113.06    2.31
   1   4  12   92.09    2.17
   1   4  12  110.67    2.53
   1   4  12   87.13    2.19
   1   4  12  108.98    2.47
   1   4  13  120.89    2.85
   1   4  14  144.67    3.18
   1   4  14  169.63    3.36
   1   4  15   40.64    1.47
   1   4  15   49.67    1.63
   1   4  16   57.25    1.59
   1   4  16   75.52    1.89
   1   5 -16    6.36    0.62
   1   5 -16    6.32    0.50
   1   5 -15   25.35    1.05
   1   5 -15   25.83    1.09
   1   5 -14    0.97    0.93
   1   5 -14    1.48    0.80
   1   5 -14    1.65    0.90
   1   5 -13  172.73    3.36
   1   5 -12    9.23    1.08
   1   5 -12    8.91    1.20
   1   5 -12    5.91    1.44
   1   5 -11  200.47    3.72
   1   5 -11  196.43    5.72
   1   5 -10   25.79    1.32
   1   5 -10   22.51    2.02
   1   5  -9  143.31    2.86
   1   5  -9  149.97    4.56
   1   5  -8   78.18    1.90
   1   5  -8   72.29    2.97
   1   5  -7   95.97    2.07
   1   5  -7   98.42    3.27
   1   5  -7  103.46    2.22
   1   5  -6  124.03    3.53
   1   5  -6  127.12    2.19
   1   5  -4  440.47    7.71
   1   5  -3   31.57    1.56
   1   5  -2  722.24   11.08
   1   5  -1   16.86    1.07
   1   5   0  645.18    9.89
   1   5   0  675.95   10.28
   1   5   1    4.29    0.78
   1   5   1    4.13    0.86
   1   5   2  604.82    8.86
   1   5   2  593.94    9.49
   1   5   3   53.40    1.07
   1   5   5   97.53    1.81
   1   5   6  354.78    5.32
   1   5   7    0.75    0.48
   1   5   8  844.62   12.05
   1   5   9   64.90    1.68
   1   5   9   65.88    1.70
   1   5   9   67.11    1.67
   1   5   9   67.51    1.69
   1   5  10  354.66    5.34
   1   5  10  339.10    5.61
   1   5  10  327.88    5.48
   1   5  10  367.21    5.68
   1   5  10  350.55    5.64
   1   5  11  250.60    4.09
   1   5  11  240.48    4.33
   1   5  11  263.60    4.43
   1   5  11  244.29    4.20
   1   5  11  259.31    4.40
   1   5  12   74.42    1.81
   1   5  12   60.12    1.68
   1   5  12   67.62    1.91
   1   5  12   68.72    2.02
   1   5  12   56.15    1.73
   1   5  13   21.34    1.17
   1   5  13   22.90    1.40
   1   5  14  105.78    2.50
   1   5  14  104.48    2.59
   1   5  15   53.12    1.69
   1   5  16   12.53    0.82
   1   6 -16   54.23    1.06
   1   6 -16   56.68    1.11
   1   6 -16   54.40    1.08
   1   6 -15    0.83    0.52
   1   6 -15    0.62    0.70
   1   6 -15    0.79    0.69
   1   6 -14   62.79    1.61
   1   6 -14   63.01    1.67
   1   6 -14   64.16    1.68
   1   6 -13    2.00    0.81
   1   6 -12  138.62    2.85
   1   6 -12  148.63    3.01
   1   6 -11    4.36    0.98
   1   6 -11    4.44    1.16
   1   6 -11    4.19    1.42
   1   6 -10  143.92    3.04
   1   6 -10  139.79    2.89
   1   6 -10  143.03    4.73
   1   6  -9   72.98    1.93
   1   6  -9   75.96    2.07
   1   6  -9   69.22    3.17
   1   6  -8   66.67    1.78
   1   6  -8   69.01    2.98
   1   6  -7  106.13    2.21
   1   6  -7  103.80    3.49
   1   6  -6  406.62    6.18
   1   6  -6  406.40    6.25
   1   6  -5  216.41    4.96
   1   6  -4   56.27    1.18
   1   6  -3  687.73   11.12
   1   6  -2   44.07    1.80
   1   6  -1   31.22    1.48
   1   6   0  435.68    7.36
   1   6   0  411.83    7.00
   1   6   1  794.84   12.50
   1   6   1  816.74   12.24
   1   6   2  230.34    5.00
   1   6   2  304.84    5.27
   1   6   3  269.42    5.19
   1   6   3  246.68    4.08
   1   6   7  571.29    8.36
   1   6   8   35.19    1.23
   1   6   8   36.52    1.22
   1   6   8   35.24    1.14
   1   6   9  307.96    5.09
   1   6   9  304.88    5.01
   1   6   9  310.61    5.00
   1   6   9  307.95    5.06
   1   6  10   22.51    1.06
   1   6  10   23.16    1.10
   1   6  10   23.77    0.92
   1   6  10   24.00    1.19
   1   6  10   20.47    1.02
   1   6  10   21.91    1.16
   1   6  11  351.09    5.28
   1   6  11  353.32    5.62
   1   6  11  331.91    5.55
   1   6  11  325.01    5.54
   1   6  12   47.42    1.49
   1   6  12   50.97    1.67
   1   6  13  111.06    2.54
   1   6  13  108.70    2.60
   1   6  14  118.07    2.77
   1   6  16   33.17    1.13
   1   7 -15   84.64    1.60
   1   7 -15   83.92    1.63
   1   7 -15   84.35    1.63
   1   7 -14    2.01    0.59
   1   7 -14    2.97    0.85
   1   7 -14    2.26    0.78
   1   7 -13   71.89    1.81
   1   7 -13   75.42    1.91
   1   7 -13   75.75    1.89
   1   7 -12    3.31    1.07
   1   7 -12    3.22    1.01
   1   7 -11   30.52    1.32
   1   7 -11   33.32    1.51
   1   7 -10   20.82    1.36
   1   7 -10   20.34    1.20
   1   7 -10   20.46    2.03
   1   7  -9  240.27    4.25
   1   7  -9  252.00    4.41
   1   7  -9  252.47    6.47
   1   7  -8   17.05    1.11
   1   7  -8   18.59    1.26
   1   7  -8   15.78    1.78
   1   7  -7  127.00    2.64
   1   7  -7  123.54    2.51
   1   7  -7  129.76    4.09
   1   7  -6   36.13    1.34
   1   7  -6   35.56    1.25
   1   7  -5   97.98    2.12
   1   7  -5  101.29    3.33
   1   7  -4    6.26    1.15
   1   7  -2  201.14    4.44
   1   7  -1  285.58    5.55
   1   7  -1  295.01    4.37
   1   7   0  396.80    5.80
   1   7   0  391.62    6.92
   1   7   1    1.74    0.85
   1   7   1    2.34    0.97
   1   7   2  123.17    2.88
   1   7   2  114.21    3.22
   1   7   3   76.58    1.85
   1   7   3   86.48    2.75
   1   7   7    0.78    0.73
   1   7   7    0.71    0.52
   1   7   8  479.56    7.14
   1   7   8  506.03    7.21
   1   7   9    0.93    0.45
   1   7   9    0.54    0.64
   1   7   9    0.82    0.78
   1   7   9    1.25    0.83
   1   7  10  423.38    6.19
   1   7  10  440.00    6.60
   1   7  10  378.96    6.37
   1   7  10  402.52    6.46
   1   7  10  408.00    6.59
   1   7  11   54.83    1.73
   1   7  11   53.99    1.59
   1   7  11   57.59    1.52
   1   7  12   70.78    1.85
   1   7  12   71.81    1.89
   1   7  13   60.77    1.93
   1   7  13   53.72    1.58
   1   7  14   25.97    1.39
   1   7  15    9.68    0.88
   1   7  16   64.71    1.56
   1   8 -15   33.87    0.77
   1   8 -15   34.51    0.86
   1   8 -14   25.18    0.86
   1   8 -14   24.26    0.99
   1   8 -14   23.97    0.94
   1   8 -13    4.42    0.67
   1   8 -13    4.40    0.87
   1   8 -13    5.23    0.95
   1   8 -12   54.18    1.64
   1   8 -11   14.08    1.02
   1   8 -11   14.76    1.18
   1   8 -11   16.14    1.28
   1   8 -10  163.51    3.31
   1   8 -10  157.20    5.18
   1   8 -10  163.52    3.28
   1   8 -10  169.62    3.35
   1   8  -9   22.16    2.08
   1   8  -9   25.35    1.40
   1   8  -9   26.88    1.51
   1   8  -8  144.35    4.68
   1   8  -8  149.48    3.07
   1   8  -8  144.33    3.02
   1   8  -7    2.71    1.32
   1   8  -7    1.81    1.08
   1   8  -7    1.69    0.97
   1   8  -6  175.64    3.33
   1   8  -6  177.54    4.90
   1   8  -6  177.81    3.30
   1   8  -6  173.24    3.28
   1   8  -5    4.67    0.75
   1   8  -5    3.87    1.20
   1   8  -5    4.32    0.94
   1   8  -5    3.69    0.90
   1   8  -4  150.26    2.83
   1   8  -4  146.49    2.78
   1   8  -4  145.75    2.77
   1   8  -4  144.32    4.09
   1   8  -3   40.83    1.31
   1   8  -3   38.77    2.01
   1   8   0  261.55    5.21
   1   8   0  260.34    4.00
   1   8   1  197.41    4.11
   1   8   1  194.63    3.15
   1   8   2  149.05    3.29
   1   8   4   58.37    2.50
   1   8   5  406.79    8.10
   1   8   7 1041.94   14.66
   1   8   7 1031.36   14.48
   1   8   8   16.08    1.07
   1   8   8   15.89    1.00
   1   8   8   13.57    0.76
   1   8   9  101.86    2.31
   1   8   9  106.50    2.37
   1   8  10   10.14    0.93
   1   8  10    8.92    1.08
   1   8  10   10.86    1.04
   1   8  10    9.69    0.86
   1   8  11  210.04    3.91
   1   8  11  223.79    4.19
   1   8  12   37.45    1.57
   1   8  12   34.13    1.44
   1   8  13  213.63    3.88
   1   8  13  198.07    3.81
   1   8  14   43.70    1.63
   1   8  15   70.04    1.90
   1   8  15   58.54    1.67
   1   8  16    7.76    0.63
   1   9 -14    5.13    0.45
   1   9 -14    5.16    0.62
   1   9 -13   66.42    1.50
   1   9 -13   67.26    1.60
   1   9 -13   64.20    1.53
   1   9 -12    6.92    0.72
   1   9 -12    7.28    1.01
   1   9 -12    6.91    0.90
   1   9 -10    0.17    0.77
   1   9 -10    0.13    1.19
   1   9 -10    0.29    1.07
   1   9 -10    0.60    0.96
   1   9  -9   29.06    1.30
   1   9  -9   25.45    2.21
   1   9  -9   28.05    1.49
   1   9  -9   28.05    1.42
   1   9  -8    1.66    0.85
   1   9  -8    2.69    1.30
   1   9  -8    2.40    1.17
   1   9  -8    2.21    1.04
   1   9  -7  156.31    3.18
   1   9  -7  150.69    4.80
   1   9  -7  158.74    3.18
   1   9  -7  154.08    3.13
   1   9  -6   23.21    1.18
   1   9  -6   21.06    1.90
   1   9  -6   22.46    1.26
   1   9  -6   21.47    1.34
   1   9  -5  197.52    3.60
   1   9  -5  191.64    3.54
   1   9  -5  191.27    3.53
   1   9  -5  194.55    5.20
   1   9  -4   13.86    0.94
   1   9  -4   11.84    1.49
   1   9  -4   13.09    1.08
   1   9  -4   13.93    1.02
   1   9  -4   10.82    0.75
   1   9  -3  413.79    6.34
   1   9  -3  433.34    8.11
   1   9  -3  411.19    6.25
   1   9  -3  413.12    6.24
   1   9  -2    9.70    0.78
   1   9  -2    7.36    1.18
   1   9  -1  314.39    6.31
   1   9   0  151.77    2.60
   1   9   1  269.94    5.28
   1   9   1  266.52    4.21
   1   9   1  280.85    6.07
   1   9   2  481.20    9.09
   1   9   3   19.80    1.65
   1   9   4  335.78    7.23
   1   9   5    7.72    0.76
   1   9   5    8.38    1.42
   1   9   5    7.63    0.76
   1   9   6  316.29    7.22
   1   9   6  315.96    5.15
   1   9   7   10.58    1.02
   1   9   7   12.34    0.83
   1   9   7   13.10    1.74
   1   9   8   17.64    0.87
   1   9   8   16.96    1.89
   1   9   8   18.22    1.12
   1   9   8   18.80    1.09
   1   9   9    8.48    1.03
   1   9   9    8.98    0.99
   1   9  10   61.19    1.85
   1   9  10   64.83    1.89
   1   9  10   63.17    1.87
   1   9  11   10.32    0.99
   1   9  11   10.56    1.14
   1   9  11   10.85    1.11
   1   9  12  129.51    2.87
   1   9  12  122.61    2.83
   1   9  13   39.27    1.56
   1   9  13   38.10    1.46
   1   9  15   19.32    0.97
   1   9  15   22.17    1.19
   1   9  16   17.75    0.73
   1  10 -13    0.39    0.42
   1  10 -13    0.65    0.64
   1  10 -12   43.17    1.20
   1  10 -12   44.44    1.35
   1  10 -11   13.56    0.85
   1  10 -11   12.46    0.98
   1  10 -11   14.24    1.08
   1  10 -10  142.38    2.84
   1  10  -9   20.64    1.11
   1  10  -9   16.06    1.82
   1  10  -9   19.59    1.21
   1  10  -9   19.40    1.29
   1  10  -8  170.33    3.34
   1  10  -8  166.66    5.14
   1  10  -8  167.42    3.34
   1  10  -8  164.03    3.29
   1  10  -7   22.03    1.21
   1  10  -7   20.59    1.97
   1  10  -7   20.16    1.36
   1  10  -7   20.24    1.26
   1  10  -6  132.12    2.83
   1  10  -6  135.93    4.45
   1  10  -6  132.65    2.83
   1  10  -6  125.90    2.76
   1  10  -5    4.25    0.85
   1  10  -5    4.28    0.98
   1  10  -5    4.52    1.08
   1  10  -5    5.63    1.40
   1  10  -4  194.59    3.57
   1  10  -4  199.30    5.22
   1  10  -4  189.86    3.49
   1  10  -4  189.89    3.51
   1  10  -3  437.00    6.68
   1  10  -3  437.90    8.51
   1  10  -3  429.03    6.57
   1  10  -2  114.28    2.43
   1  10  -2  114.07    2.41
   1  10  -1   77.49    2.74
   1  10  -1   75.01    1.85
   1  10   0   72.03    2.54
   1  10   0   73.30    1.56
   1  10   0   77.46    1.83
   1  10   1   12.90    0.87
   1  10   1   13.93    0.91
   1  10   1   12.01    0.65
   1  10   1   13.04    1.46
   1  10   2  265.99    6.31
   1  10   2  276.56    4.52
   1  10   2  269.31    4.48
   1  10   2  260.76    4.28
   1  10   2  267.45    4.31
   1  10   3  254.85    6.23
   1  10   3  262.14    4.41
   1  10   3  258.09    4.39
   1  10   4   99.21    3.66
   1  10   4   93.41    2.15
   1  10   4   95.35    2.16
   1  10   5  290.10    4.88
   1  10   5  294.49    7.00
   1  10   6    1.49    0.73
   1  10   6    1.46    0.71
   1  10   6    2.24    1.30
   1  10   7   42.59    2.68
   1  10   7   43.99    1.35
   1  10   7   45.76    1.53
   1  10   8   22.05    1.26
   1  10   8   22.30    1.02
   1  10   8   20.18    2.12
   1  10   8   21.05    1.19
   1  10   9    8.24    1.09
   1  10   9    7.30    0.99
   1  10   9    7.33    1.60
   1  10  10   91.26    2.38
   1  10  10   94.87    2.37
   1  10  10   94.43    2.36
   1  10  10   95.77    4.14
   1  10  11  271.21    4.97
   1  10  11  282.26    4.91
   1  10  11  268.46    7.43
   1  10  11  281.50    4.92
   1  10  12    3.12    0.80
   1  10  12    5.19    1.50
   1  10  12    2.98    0.96
   1  10  13   57.25    1.74
   1  10  14    3.49    0.89
   1  10  15   61.85    1.65
   1  10  15   49.42    1.39
   1  11 -13   29.54    0.69
   1  11 -12    3.15    0.49
   1  11 -11   37.33    1.12
   1  11 -11   36.33    1.26
   1  11 -10    3.87    0.69
   1  11 -10    3.98    0.95
   1  11  -9   80.03    1.95
   1  11  -8    1.66    0.76
   1  11  -8    2.10    1.24
   1  11  -8    1.23    1.01
   1  11  -7  148.31    3.03
   1  11  -7  143.71    4.70
   1  11  -7  143.56    3.02
   1  11  -6    0.57    0.82
   1  11  -6    0.60    1.10
   1  11  -6    1.53    1.07
   1  11  -5  108.79    2.50
   1  11  -5  109.19    3.91
   1  11  -5  104.39    2.48
   1  11  -4   47.85    1.60
   1  11  -4   45.68    1.64
   1  11  -3   51.77    1.64
   1  11  -3   55.09    2.62
   1  11  -3   50.12    1.67
   1  11  -3   49.90    1.49
   1  11  -2  236.35    4.13
   1  11  -2  221.75    3.91
   1  11  -2  227.48    5.49
   1  11  -1   19.69    1.56
   1  11  -1   19.65    1.08
   1  11   0  111.88    2.46
   1  11   1  159.13    3.15
   1  11   1  163.48    3.13
   1  11   1  156.36    2.81
   1  11   1  160.63    2.99
   1  11   2   35.64    2.30
   1  11   2   41.51    1.43
   1  11   2   40.10    1.40
   1  11   2   35.86    1.12
   1  11   2   39.68    1.40
   1  11   3  266.52    4.60
   1  11   3  266.16    4.61
   1  11   3  261.87    4.37
   1  11   3  273.37    6.70
   1  11   4  126.24    4.39
   1  11   4  132.38    2.79
   1  11   4  132.97    2.79
   1  11   5    8.81    0.93
   1  11   5    7.04    1.52
   1  11   6   46.37    1.61
   1  11   6   43.83    2.75
   1  11   6   45.18    1.44
   1  11   7   10.27    0.88
   1  11   7   11.72    1.74
   1  11   7   11.11    1.12
   1  11   8    9.00    1.11
   1  11   8    7.67    0.83
   1  11   8    8.84    1.70
   1  11   8    7.81    1.00
   1  11   9  351.97    5.77
   1  11   9  336.13    5.71
   1  11   9  332.13    8.37
   1  11  10  207.67    4.07
   1  11  10  216.80    4.02
   1  11  10  205.68    3.94
   1  11  10  201.40    6.27
   1  11  11    0.04    0.80
   1  11  11    0.13    1.00
   1  11  11    1.01    1.30
   1  11  11    0.44    0.92
   1  11  12  179.10    3.50
   1  11  12  178.72    3.56
   1  11  13    0.43    0.83
   1  11  14   85.39    2.04
   1  11  15   17.87    0.95
   1  11  15   12.56    0.70
   1  12 -12    5.53    0.34
   1  12 -12    5.96    0.39
   1  12 -11   11.57    0.63
   1  12 -10   42.58    1.20
   1  12  -9   22.08    0.99
   1  12  -8   95.22    2.16
   1  12  -7    5.57    0.85
   1  12  -7    5.05    1.03
   1  12  -6  138.95    2.89
   1  12  -6  133.15    4.40
   1  12  -6  134.19    2.85
   1  12  -5   10.85    1.01
   1  12  -5    7.15    1.44
   1  12  -4   72.90    2.01
   1  12  -4   69.66    3.07
   1  12  -3  175.27    3.44
   1  12  -3  162.92    4.76
   1  12  -2  336.27    5.58
   1  12  -2  327.31    5.38
   1  12  -2  326.90    7.10
   1  12  -1    1.39    0.82
   1  12  -1    1.12    0.95
   1  12  -1    0.81    0.77
   1  12   0  218.83    3.91
   1  12   0  216.72    4.01
   1  12   0  211.96    4.03
   1  12   1  110.61    2.54
   1  12   1  105.25    2.39
   1  12   1  114.05    2.58
   1  12   2   61.73    1.85
   1  12   2   59.89    1.83
   1  12   3   62.13    1.85
   1  12   3   63.12    1.87
   1  12   3   56.80    1.52
   1  12   3   59.74    3.05
   1  12   4  197.80    3.78
   1  12   4  199.61    3.79
   1  12   4  191.39    5.75
   1  12   4  202.85    3.63
   1  12   5  313.62    5.44
   1  12   5  303.35    7.69
   1  12   5  316.26    5.22
   1  12   6   23.53    1.30
   1  12   6   24.39    1.19
   1  12   6   23.83    2.22
   1  12   7   78.52    3.73
   1  12   7   86.76    2.28
   1  12   8  103.98    2.32
   1  12   8   97.31    4.20
   1  12   8  102.85    2.47
   1  12   9   50.45    1.77
   1  12   9   46.57    1.65
   1  12   9   44.78    2.91
   1  12  10  104.67    2.62
   1  12  10  115.62    2.65
   1  12  10  106.57    2.53
   1  12  10  105.63    4.35
   1  12  11  276.31    4.88
   1  12  11  278.06    5.02
   1  12  12   45.47    1.56
   1  12  13   92.42    2.15
   1  12  13   92.97    2.17
   1  12  14   11.78    0.89
   1  12  15   19.28    0.89
   1  13 -11   24.86    0.62
   1  13 -11   27.47    0.69
   1  13 -10    3.04    0.49
   1  13 -10    3.31    0.50
   1  13  -9   28.94    1.00
   1  13  -8    6.58    0.71
   1  13  -6    3.08    0.77
   1  13  -5   88.02    2.20
   1  13  -4   -0.16    0.81
   1  13  -4    0.07    0.97
   1  13  -3   31.54    2.10
   1  13  -3   31.81    1.27
   1  13  -2   -0.21    0.86
   1  13  -2    0.55    0.89
   1  13  -2    0.69    0.76
   1  13  -1  335.79    5.49
   1  13  -1  331.88    5.52
   1  13   0   38.94    1.55
   1  13   0   37.29    1.55
   1  13   1   75.62    2.12
   1  13   1   77.57    2.16
   1  13   2    2.45    0.94
   1  13   2    2.08    0.92
   1  13   3  198.49    3.89
   1  13   3  198.43    3.88
   1  13   4  312.83    7.95
   1  13   4  333.67    5.71
   1  13   5   62.46    3.32
   1  13   5   67.16    1.86
   1  13   5   62.36    2.01
   1  13   6  193.67    6.02
   1  13   6  195.68    3.66
   1  13   6  198.20    3.96
   1  13   7   50.04    1.59
   1  13   7   49.94    1.78
   1  13   8   81.26    2.19
   1  13   8   78.06    1.94
   1  13   8   73.70    3.62
   1  13   8   72.48    2.04
   1  13   9   66.59    1.95
   1  13   9   68.81    3.47
   1  13  10  148.79    3.22
   1  13  10  161.42    3.23
   1  13  11   -0.01    0.80
   1  13  12  178.99    3.30
   1  13  12  180.39    3.41
   1  13  13   10.83    0.88
   1  13  13   12.74    0.84
   1  13  14   38.84    1.17
   1  13  14   43.66    1.12
   1  14 -10   65.05    1.15
   1  14 -10   58.48    1.06
   1  14  -9    8.29    0.55
   1  14  -9    7.80    0.53
   1  14  -8   31.44    1.01
   1  14  -8   30.64    1.00
   1  14  -7   13.86    0.84
   1  14  -7   13.17    0.82
   1  14  -6   97.32    2.18
   1  14  -6  101.46    2.20
   1  14  -4  122.22    2.65
   1  14  -4  118.81    2.64
   1  14  -3    6.86    0.90
   1  14  -3    7.03    0.94
   1  14  -3    6.21    0.81
   1  14  -2   10.27    1.03
   1  14  -2   10.49    1.04
   1  14  -2    9.79    0.93
   1  14  -1   32.09    1.44
   1  14  -1   31.01    1.42
   1  14  -1   29.79    1.31
   1  14   0   51.54    1.74
   1  14   0   51.16    1.76
   1  14   0   46.94    1.61
   1  14   1   31.44    1.45
   1  14   1   32.80    1.47
   1  14   1   29.37    1.33
   1  14   2   47.72    1.74
   1  14   2   46.29    1.72
   1  14   2   48.45    1.63
   1  14   3  156.94    3.36
   1  14   3  153.34    3.31
   1  14   3  163.83    3.22
   1  14   4   65.48    1.88
   1  14   4   62.51    2.01
   1  14   5    3.33    0.90
   1  14   5    4.08    1.35
   1  14   5    4.34    0.98
   1  14   6   95.41    4.04
   1  14   6  106.46    2.39
   1  14   6   94.09    2.15
   1  14   6  103.65    2.50
   1  14   7   61.91    3.27
   1  14   7   66.90    1.82
   1  14   7   61.27    1.80
   1  14   7   60.32    1.65
   1  14   8   44.20    1.44
   1  14   8   40.68    1.33
   1  14   8   44.50    1.63
   1  14   9  168.19    3.15
   1  14  10    3.31    0.96
   1  14  10    2.68    0.79
   1  14  10    3.33    0.59
   1  14  11   42.28    1.41
   1  14  11   41.98    1.24
   1  14  12    9.51    0.81
   1  14  12   10.72    0.67
   1  14  12   11.35    0.82
   1  15  -9   30.86    0.67
   1  15  -8   13.42    0.60
   1  15  -8   13.00    0.56
   1  15  -7   43.75    1.15
   1  15  -7   43.26    1.07
   1  15  -7   42.73    1.12
   1  15  -6    3.74    0.63
   1  15  -6    3.31    0.76
   1  15  -6    3.04    0.61
   1  15  -5   45.78    1.37
   1  15  -5   45.23    1.37
   1  15  -4    0.28    0.68
   1  15  -4    0.03    0.71
   1  15  -3   42.59    1.31
   1  15  -2    0.20    0.75
   1  15  -2   -0.44    0.77
   1  15  -2    0.09    0.71
   1  15  -1   81.23    2.12
   1  15  -1   82.29    2.13
   1  15  -1   75.61    1.95
   1  15   0    2.52    0.87
   1  15   0    2.65    0.85
   1  15   0    2.29    0.84
   1  15   1   37.06    1.50
   1  15   1   37.46    1.49
   1  15   1   37.08    1.43
   1  15   2    4.44    0.94
   1  15   2    3.81    0.91
   1  15   2    3.72    0.95
   1  15   3  157.03    3.13
   1  15   3  150.05    3.24
   1  15   4   41.78    1.52
   1  15   4   40.83    1.60
   1  15   5   90.32    2.18
   1  15   5   82.91    2.25
   1  15   6    5.15    0.88
   1  15   7   31.50    1.27
   1  15   7   41.69    1.38
   1  15   8   32.68    1.07
   1  15   8   38.56    1.47
   1  15   9   25.09    0.92
   1  15   9   29.80    1.31
   1  15  10   34.28    1.04
   1  15  10   35.85    1.30
   1  15  11   19.83    0.94
   1  15  11   20.89    0.75
   1  15  12   38.95    1.13
   1  16  -7    0.44    0.30
   1  16  -7    0.61    0.33
   1  16  -6   18.41    0.70
   1  16  -6   19.18    0.74
   1  16  -5    4.38    0.58
   1  16  -5    4.45    0.60
   1  16  -4   48.85    1.34
   1  16  -4   48.33    1.35
   1  16  -3   -0.02    0.64
   1  16  -3   -0.14    0.64
   1  16  -2   62.47    1.68
   1  16  -2   65.66    1.70
   1  16  -1    1.41    0.72
   1  16  -1    1.59    0.70
   1  16  -1    1.31    0.74
   1  16   0   44.60    1.43
   1  16   1    0.54    0.78
   1  16   2  114.18    2.48
   1  16   3    9.89    0.99
   1  16   4   39.88    1.43
   1  16   4   38.00    1.41
   1  16   5   10.46    0.97
   1  16   5    9.13    0.97
   1  16   6   29.54    1.22
   1  16   6   28.13    1.26
   1  16   7   68.38    1.69
   1  16   7   68.13    1.81
   1  16   8   21.42    1.13
   1  16   9   41.15    1.33
   1  16   9   45.80    1.41
   1  16  10    3.46    0.60
   1  16  11   52.62    1.28
   1  17  -5   15.86    0.59
   1  17  -4    0.98    0.45
   1  17  -3   24.69    0.91
   1  17  -2    3.27    0.63
   1  17  -1   60.15    1.45
   1  17  -1   66.04    1.62
   1  17   0    1.03    0.65
   1  17   0    2.27    0.69
   1  17   1   43.15    1.31
   1  17   1   45.81    1.41
   1  17   2    0.37    0.69
   1  17   2    0.88    0.69
   1  17   3   46.18    1.46
   1  17   3   47.80    1.41
   1  17   3   45.73    1.34
   1  17   4   12.33    0.88
   1  17   4   11.51    0.88
   1  17   5   73.61    1.74
   1  17   5   70.44    1.72
   1  17   6   14.61    0.86
   1  17   6   14.45    0.95
   1  17   7   15.59    0.93
   1  17   8   30.27    1.07
   1  17   8   33.96    1.13
   1  17   9   15.07    0.74
   1  17  10   28.99    0.84
   1  18  -3    7.33    0.41
   1  18  -2   36.42    0.93
   1  18  -1   11.72    0.64
   1  18   0   33.00    1.01
   1  18   1    1.61    0.55
   1  18   2   79.40    1.64
   1  18   3   -0.04    0.56
   1  18   4   42.27    1.14
   1  18   6   19.80    0.81
   1  18   7    0.08    0.41
   1  18   7    0.29    0.51
   1  18   8   14.40    0.58
   1  18   9    1.37    0.25
   1  19   5   14.74    0.48
   2 -17  -3   17.99    0.88
   2 -17  -2   34.11    1.06
   2 -17  -2   18.34    0.71
   2 -17  -1    5.97    0.54
   2 -17  -1    7.53    0.58
   2 -17   0   23.51    0.88
   2 -17   0   29.69    1.00
   2 -17   3   60.23    1.23
   2 -17   4   24.65    0.75
   2 -17   4   28.40    0.72
   2 -16  -9   10.37    0.55
   2 -16  -8    0.69    0.48
   2 -16  -7   47.77    1.28
   2 -16  -6    4.54    0.66
   2 -16  -6    3.26    0.41
   2 -16  -5   36.53    1.19
   2 -16  -4   14.94    0.68
   2 -16  -4   16.06    0.86
   2 -16  -3   81.66    1.70
   2 -16  -3   88.21    1.95
   2 -16  -2   26.03    1.09
   2 -16  -2   33.45    1.32
   2 -16  -1   22.44    1.01
   2 -16  -1   23.56    1.04
   2 -16   0   16.66    0.96
   2 -16   0   18.49    0.90
   2 -16   0   17.63    0.92
   2 -16   1    6.90    0.69
   2 -16   1    5.64    0.56
   2 -16   1    6.99    0.71
   2 -16   1    6.64    0.81
   2 -16   1    8.32    0.91
   2 -16   2    1.28    0.56
   2 -16   2    1.23    0.48
   2 -16   2    1.06    0.58
   2 -16   2    1.09    0.71
   2 -16   2    1.83    0.76
   2 -16   3   27.83    1.01
   2 -16   3   28.52    1.03
   2 -16   3   30.12    1.12
   2 -16   3   22.84    0.92
   2 -16   3   20.81    0.80
   2 -16   4   18.27    0.67
   2 -16   4   15.95    0.71
   2 -16   4   17.81    0.81
   2 -16   5   30.01    0.81
   2 -16   5   30.57    0.88
   2 -16   6   31.74    0.76
   2 -16   6   30.63    0.83
   2 -16   7    3.61    0.34
   2 -16   7    3.19    0.32
   2 -15 -10   39.37    1.09
   2 -15  -9    6.21    0.74
   2 -15  -8   22.59    1.10
   2 -15  -7    0.96    0.41
   2 -15  -6   44.75    1.25
   2 -15  -6   55.77    1.48
   2 -15  -5    0.94    0.76
   2 -15  -5    1.29    0.48
   2 -15  -5    1.95    0.88
   2 -15  -4   35.05    1.41
   2 -15  -4   37.44    1.19
   2 -15  -3    2.97    0.76
   2 -15  -3    2.60    0.55
   2 -15  -3    3.27    1.03
   2 -15  -2   97.18    2.25
   2 -15  -2  104.34    2.24
   2 -15  -1   26.11    1.21
   2 -15  -1   27.11    1.18
   2 -15  -1   29.52    1.11
   2 -15  -1   27.91    1.25
   2 -15   0    8.69    0.87
   2 -15   0    9.16    0.76
   2 -15   0   10.68    0.89
   2 -15   0   10.03    0.97
   2 -15   0    8.82    1.10
   2 -15   1   58.74    1.73
   2 -15   1   56.87    1.68
   2 -15   1   58.18    1.72
   2 -15   1   60.71    1.78
   2 -15   2    1.20    0.68
   2 -15   2    1.34    0.54
   2 -15   2    1.30    0.62
   2 -15   2    1.56    0.73
   2 -15   2    1.44    0.52
   2 -15   2    2.26    0.88
   2 -15   2    1.62    0.92
   2 -15   3   25.82    1.14
   2 -15   3   28.99    1.22
   2 -15   3   21.00    1.01
   2 -15   3   21.34    1.07
   2 -15   3   25.38    1.16
   2 -15   3   28.63    1.28
   2 -15   3   24.50    0.99
   2 -15   4   68.20    1.78
   2 -15   4   74.18    1.76
   2 -15   4   85.57    2.01
   2 -15   4   78.34    1.94
   2 -15   4   81.55    1.92
   2 -15   5   33.77    1.22
   2 -15   5   29.08    1.07
   2 -15   5   32.15    1.08
   2 -15   5   36.78    1.30
   2 -15   6   24.24    0.91
   2 -15   6   26.59    0.93
   2 -15   7   96.29    1.89
   2 -15   7   92.57    1.80
   2 -15   7   90.86    1.92
   2 -15   8    0.29    0.40
   2 -15   8    0.31    0.34
   2 -15   8    0.66    0.36
   2 -15   8    1.04    0.39
   2 -15   9    2.67    0.29
   2 -15   9    2.35    0.27
   2 -14 -11   16.64    0.81
   2 -14 -10    3.74    0.63
   2 -14  -9   47.27    1.27
   2 -14  -9   57.90    1.51
   2 -14  -8   17.89    1.01
   2 -14  -8   14.90    0.78
   2 -14  -7   21.33    1.04
   2 -14  -7   21.33    1.10
   2 -14  -7   18.58    0.90
   2 -14  -7   20.29    0.95
   2 -14  -6   13.91    1.01
   2 -14  -6   12.50    0.82
   2 -14  -6   13.30    1.07
   2 -14  -5   88.87    2.11
   2 -14  -5   81.50    1.99
   2 -14  -4    6.68    0.73
   2 -14  -3  198.90    3.78
   2 -14  -3  224.86    4.02
   2 -14  -2    2.35    0.87
   2 -14  -2    3.00    0.76
   2 -14  -2    3.11    0.66
   2 -14  -2    2.92    1.12
   2 -14  -1   13.00    1.10
   2 -14  -1   15.20    1.05
   2 -14  -1   13.15    0.90
   2 -14  -1   14.77    1.28
   2 -14   0   12.41    0.88
   2 -14   0   11.42    1.00
   2 -14   0   12.96    0.97
   2 -14   0   13.48    1.06
   2 -14   0   12.67    1.12
   2 -14   0   12.33    1.25
   2 -14   1  102.82    2.31
   2 -14   1  100.96    2.46
   2 -14   1   87.64    2.35
   2 -14   1   86.29    2.26
   2 -14   1   98.80    2.44
   2 -14   1  103.01    2.45
   2 -14   1   95.90    2.42
   2 -14   2   52.06    1.76
   2 -14   2   51.69    1.77
   2 -14   2   53.31    1.75
   2 -14   3  187.78    3.68
   2 -14   4   83.19    2.04
   2 -14   4   84.04    2.13
   2 -14   4   79.49    2.03
   2 -14   5  118.65    2.53
   2 -14   5  135.15    2.80
   2 -14   5  123.95    2.68
   2 -14   5  145.21    2.87
   2 -14   5  131.21    2.72
   2 -14   6  182.18    3.33
   2 -14   6  186.14    3.38
   2 -14   7    1.97    0.56
   2 -14   7    2.56    0.62
   2 -14   7    2.53    0.48
   2 -14   8   99.76    1.97
   2 -14   8  100.41    2.03
   2 -14   8   99.92    2.01
   2 -14   9    0.49    0.46
   2 -14   9    0.90    0.45
   2 -14   9    0.32    0.30
   2 -14  10   17.09    0.64
   2 -14  10   21.32    0.65
   2 -13 -13    2.26    0.27
   2 -13 -12   59.93    1.22
   2 -13 -12   44.46    1.22
   2 -13 -11   27.14    1.09
   2 -13 -11   28.79    0.97
   2 -13 -10  119.45    2.42
   2 -13 -10  110.71    2.30
   2 -13  -9   12.22    1.01
   2 -13  -9   12.03    0.85
   2 -13  -8   50.22    1.63
   2 -13  -7   10.11    1.01
   2 -13  -6  129.02    2.76
   2 -13  -6  135.13    2.84
   2 -13  -5   16.28    1.27
   2 -13  -5   15.37    2.69
   2 -13  -5   14.37    0.96
   2 -13  -5   16.08    1.13
   2 -13  -5   15.82    0.99
   2 -13  -4  277.49    7.53
   2 -13  -4  274.68    4.72
   2 -13  -4  244.99    4.48
   2 -13  -4  274.92    4.64
   2 -13  -4  244.12    4.54
   2 -13  -3    3.85    0.70
   2 -13  -3    3.38    0.80
   2 -13  -3    2.78    1.78
   2 -13  -3    6.43    2.64
   2 -13  -3    3.91    1.20
   2 -13  -3    3.10    0.70
   2 -13  -3    3.25    0.87
   2 -13  -2  129.16    5.18
   2 -13  -2  124.95    2.85
   2 -13  -2  123.97    4.99
   2 -13  -2  108.36    2.61
   2 -13  -2  117.95    2.70
   2 -13  -2  115.12    4.47
   2 -13  -2  113.45    2.58
   2 -13  -1    9.77    0.85
   2 -13  -1   12.62    2.87
   2 -13  -1   11.31    2.09
   2 -13  -1   10.08    1.34
   2 -13  -1    9.86    1.71
   2 -13  -1   10.75    0.93
   2 -13  -1   11.20    1.03
   2 -13  -1    8.79    1.06
   2 -13  -1    9.34    1.11
   2 -13   0  123.05    4.70
   2 -13   0  136.13    5.35
   2 -13   0  134.64    3.03
   2 -13   0  131.78    5.17
   2 -13   0  131.60    2.97
   2 -13   0  134.26    2.82
   2 -13   0  135.41    3.03
   2 -13   0  136.14    2.85
   2 -13   1   24.46    2.26
   2 -13   1   29.20    3.20
   2 -13   1   24.20    2.49
   2 -13   1   25.11    1.52
   2 -13   1   24.62    1.44
   2 -13   1   25.50    1.22
   2 -13   1   25.29    1.38
   2 -13   1   25.36    1.20
   2 -13   1   24.11    1.31
   2 -13   2  126.97    2.74
   2 -13   2  121.74    2.78
   2 -13   2  125.76    2.90
   2 -13   2  127.82    2.76
   2 -13   2  121.23    2.86
   2 -13   2  111.52    4.47
   2 -13   2  122.01    5.02
   2 -13   2  116.29    4.70
   2 -13   2  125.17    2.85
   2 -13   3    5.99    0.74
   2 -13   3    6.18    1.15
   2 -13   3    5.38    0.84
   2 -13   3    5.38    0.88
   2 -13   3    5.23    1.61
   2 -13   3    7.24    2.48
   2 -13   3    5.10    1.12
   2 -13   4  139.43    3.02
   2 -13   4  141.57    3.01
   2 -13   4  146.24    3.14
   2 -13   4  153.71    3.24
   2 -13   4  147.97    3.15
   2 -13   5   57.15    1.80
   2 -13   5   63.90    1.97
   2 -13   5   61.68    1.84
   2 -13   6   25.10    1.20
   2 -13   7  185.23    3.47
   2 -13   7  171.11    3.42
   2 -13   8    5.47    0.69
   2 -13   8    4.26    0.62
   2 -13   9   55.46    1.41
   2 -13   9   52.39    1.46
   2 -13  10    7.85    0.62
   2 -13  10    7.75    0.64
   2 -13  10    6.87    0.54
   2 -13  11   63.94    1.33
   2 -13  11   57.06    1.20
   2 -12 -13   54.64    1.09
   2 -12 -13   29.77    0.88
   2 -12 -12   33.64    1.18
   2 -12 -12   32.60    1.06
   2 -12 -11   23.92    1.14
   2 -12 -11   24.56    1.03
   2 -12 -10  157.12    3.03
   2 -12 -10  139.29    2.89
   2 -12  -9   51.25    1.72
   2 -12  -8   12.01    0.90
   2 -12  -8   12.59    1.12
   2 -12  -8   13.60    1.00
   2 -12  -7  106.89    2.43
   2 -12  -7  110.91    2.57
   2 -12  -6   14.40    0.93
   2 -12  -6   13.89    1.17
   2 -12  -6   13.67    2.54
   2 -12  -6   14.33    1.02
   2 -12  -6   15.09    1.16
   2 -12  -5  129.48    2.83
   2 -12  -5  140.08    2.96
   2 -12  -5  138.82    5.27
   2 -12  -5  138.67    2.96
   2 -12  -4   69.56    1.94
   2 -12  -4   75.85    2.08
   2 -12  -4   73.83    2.01
   2 -12  -4   79.18    4.27
   2 -12  -4   78.21    2.20
   2 -12  -4   76.30    4.02
   2 -12  -3  450.43   10.02
   2 -12  -3  436.05   10.14
   2 -12  -3  443.92    6.78
   2 -12  -3  357.42    6.41
   2 -12  -3  398.95    6.51
   2 -12  -3  420.31    6.71
   2 -12  -3  429.56    6.66
   2 -12  -3  394.48    6.61
   2 -12  -2   12.01    2.92
   2 -12  -2    9.02    1.30
   2 -12  -2   13.01    2.20
   2 -12  -2    7.46    0.84
   2 -12  -2    8.55    0.96
   2 -12  -2    8.37    1.03
   2 -12  -1  191.78    5.91
   2 -12  -1  206.24    6.59
   2 -12  -1  203.45    3.95
   2 -12  -1  209.43    6.55
   2 -12  -1  202.85    3.93
   2 -12  -1  188.50    3.77
   2 -12  -1  206.36    3.94
   2 -12  -1  184.38    3.76
   2 -12  -1  193.05    3.68
   2 -12   0   23.44    2.21
   2 -12   0   22.60    1.11
   2 -12   0   26.11    1.36
   2 -12   0   23.19    1.33
   2 -12   0   25.23    1.42
   2 -12   0   23.12    1.15
   2 -12   0   24.98    3.25
   2 -12   0   25.41    1.52
   2 -12   0   27.62    2.65
   2 -12   1   73.92    2.02
   2 -12   1   76.41    4.23
   2 -12   1   73.56    2.24
   2 -12   1   80.01    3.95
   2 -12   1   71.20    3.50
   2 -12   1   73.99    2.22
   2 -12   1   77.70    2.10
   2 -12   2    4.03    0.73
   2 -12   2    2.98    0.79
   2 -12   2    2.32    0.68
   2 -12   2    3.59    2.48
   2 -12   2    1.62    1.51
   2 -12   2    2.48    1.14
   2 -12   2    3.10    1.40
   2 -12   2    2.83    0.80
   2 -12   2    3.36    1.12
   2 -12   3  178.82    3.65
   2 -12   3  188.39    3.65
   2 -12   3  183.27    3.71
   2 -12   3  186.30    6.14
   2 -12   3  178.71    3.61
   2 -12   3  174.04    5.72
   2 -12   3  171.95    5.60
   2 -12   3  191.52    3.83
   2 -12   4    1.40    0.70
   2 -12   4    0.90    0.74
   2 -12   4    2.32    1.49
   2 -12   4    0.85    1.01
   2 -12   4    1.13    2.36
   2 -12   4    1.00    1.10
   2 -12   5   12.93    1.02
   2 -12   5   12.87    1.28
   2 -12   5   11.12    0.99
   2 -12   5   11.77    1.11
   2 -12   6  124.91    2.87
   2 -12   6  116.49    2.85
   2 -12   6  133.21    2.92
   2 -12   6  138.49    3.01
   2 -12   7    8.71    0.88
   2 -12   7    7.77    0.87
   2 -12   7    9.39    1.09
   2 -12   7    8.39    0.80
   2 -12   8   14.90    0.97
   2 -12   8   13.61    0.85
   2 -12   8   15.19    1.08
   2 -12   9   13.55    0.78
   2 -12   9   14.88    0.92
   2 -12   9   16.45    0.93
   2 -12  10   34.11    1.22
   2 -12  10   42.70    1.28
   2 -12  11    1.87    0.49
   2 -12  12   25.84    0.79
   2 -12  12   28.33    0.84
   2 -11 -14   10.64    0.52
   2 -11 -14   11.60    0.56
   2 -11 -13   14.34    0.75
   2 -11 -13   14.15    0.85
   2 -11 -12   13.24    0.84
   2 -11 -12   12.88    0.97
   2 -11 -11   81.77    2.04
   2 -11 -11   88.83    2.17
   2 -11 -10   19.70    1.07
   2 -11 -10   19.89    1.25
   2 -11 -10   19.85    1.10
   2 -11  -9   72.58    1.94
   2 -11  -9   69.05    1.78
   2 -11  -9   74.76    2.09
   2 -11  -9   72.50    2.04
   2 -11  -8   25.13    1.21
   2 -11  -8   28.99    1.41
   2 -11  -8   27.66    1.31
   2 -11  -7    8.32    0.88
   2 -11  -7    8.47    0.93
   2 -11  -7    7.86    1.06
   2 -11  -6  184.24    3.61
   2 -11  -6  195.33    6.10
   2 -11  -6  194.54    3.69
   2 -11  -6  191.46    3.76
   2 -11  -6  203.47    3.81
   2 -11  -5   12.48    0.90
   2 -11  -5   14.60    2.71
   2 -11  -5   13.20    1.23
   2 -11  -5   12.88    0.98
   2 -11  -4  187.57    3.55
   2 -11  -4  198.98    6.44
   2 -11  -4  205.85    6.38
   2 -11  -4  200.75    3.83
   2 -11  -4  202.70    3.79
   2 -11  -4  198.54    3.74
   2 -11  -3   -0.82    2.59
   2 -11  -3    0.05    1.69
   2 -11  -3    0.80    1.10
   2 -11  -3    0.60    0.81
   2 -11  -3    0.38    0.74
   2 -11  -3    0.65    0.86
   2 -11  -2   96.37    2.29
   2 -11  -2   87.48    2.25
   2 -11  -2   92.60    2.24
   2 -11  -2   92.87    4.30
   2 -11  -2   98.58    4.61
   2 -11  -2   98.25    2.37
   2 -11  -2   85.46    2.22
   2 -11  -2   89.92    2.14
   2 -11  -1    1.22    0.60
   2 -11  -1    2.32    2.77
   2 -11  -1    1.04    1.56
   2 -11  -1   -0.06    0.60
   2 -11  -1    0.86    0.93
   2 -11  -1    0.43    0.80
   2 -11  -1    1.01    0.82
   2 -11  -1    0.30    0.62
   2 -11   0  209.31    6.33
   2 -11   0  212.14    6.61
   2 -11   0  202.14    3.80
   2 -11   0  194.55    5.81
   2 -11   0  196.24    3.76
   2 -11   0  199.15    3.90
   2 -11   0  199.41    3.80
   2 -11   1   34.22    1.45
   2 -11   1   37.35    1.44
   2 -11   1   34.21    1.61
   2 -11   1   37.19    1.36
   2 -11   1   40.12    3.45
   2 -11   1   37.80    2.79
   2 -11   1   38.64    2.62
   2 -11   1   34.67    1.36
   2 -11   2   95.71    2.52
   2 -11   2   94.12    2.29
   2 -11   2   90.03    3.85
   2 -11   2   92.77    4.46
   2 -11   2   94.36    4.10
   2 -11   2   90.54    2.44
   2 -11   2  100.83    2.41
   2 -11   3   20.26    1.15
   2 -11   3   18.33    1.15
   2 -11   3   22.81    2.14
   2 -11   3   23.34    2.30
   2 -11   3   23.37    2.99
   2 -11   3   22.37    1.40
   2 -11   3   23.43    1.47
   2 -11   4  205.04    4.03
   2 -11   4  197.62    3.91
   2 -11   4  201.20    3.95
   2 -11   4  194.39    3.86
   2 -11   4  201.72    6.24
   2 -11   4  189.48    5.84
   2 -11   4  199.51    3.82
   2 -11   5   15.79    1.23
   2 -11   5   15.46    2.55
   2 -11   5   18.30    1.11
   2 -11   5   18.68    1.18
   2 -11   5   17.86    1.18
   2 -11   5   17.44    1.07
   2 -11   5   17.38    1.10
   2 -11   5   18.98    1.40
   2 -11   6   15.59    1.14
   2 -11   6   16.26    1.08
   2 -11   6   15.25    1.14
   2 -11   6   17.16    1.13
   2 -11   6   15.00    1.00
   2 -11   6   18.94    1.13
   2 -11   6   18.90    1.37
   2 -11   7    1.56    0.79
   2 -11   7    2.08    0.75
   2 -11   7    1.07    0.81
   2 -11   7    1.72    0.71
   2 -11   7    1.84    1.02
   2 -11   7    2.31    0.66
   2 -11   8  128.04    2.79
   2 -11   8  116.10    2.53
   2 -11   8  116.20    2.71
   2 -11   8  122.36    2.70
   2 -11   8  134.28    2.83
   2 -11   9    1.75    0.69
   2 -11   9    1.19    0.70
   2 -11   9    0.78    0.70
   2 -11   9    1.53    0.60
   2 -11  10   62.49    1.83
   2 -11  10   62.00    1.65
   2 -11  11    3.51    0.49
   2 -11  11    4.63    0.68
   2 -11  11    4.48    0.57
   2 -11  12   24.86    0.96
   2 -11  12   23.01    0.74
   2 -11  13   24.58    0.80
   2 -11  13   22.02    0.75
   2 -10 -15    2.08    0.32
   2 -10 -15    2.37    0.34
   2 -10 -14   61.11    1.37
   2 -10 -14   63.08    1.43
   2 -10 -13   13.33    0.92
   2 -10 -13   12.06    0.81
   2 -10 -13   14.58    0.92
   2 -10 -12   22.92    1.08
   2 -10 -12   20.27    1.00
   2 -10 -12   24.33    1.14
   2 -10 -12   23.55    1.20
   2 -10 -11   28.66    1.37
   2 -10 -11   28.41    1.27
   2 -10 -10   10.43    0.94
   2 -10 -10   11.36    1.06
   2 -10 -10   11.58    1.14
   2 -10 -10   11.23    1.02
   2 -10  -9   22.43    1.19
   2 -10  -9   21.30    1.21
   2 -10  -9   20.93    1.31
   2 -10  -9   23.06    1.24
   2 -10  -8   49.97    1.65
   2 -10  -8   49.40    1.61
   2 -10  -8   53.74    1.79
   2 -10  -8   50.90    1.74
   2 -10  -7  192.76    3.70
   2 -10  -7  191.19    3.49
   2 -10  -7  193.73    3.80
   2 -10  -6   73.04    2.03
   2 -10  -6   79.47    3.98
   2 -10  -6   76.95    2.03
   2 -10  -6   70.27    1.92
   2 -10  -5  109.40    2.48
   2 -10  -5  119.02    4.73
   2 -10  -5  117.62    2.66
   2 -10  -5  119.73    2.64
   2 -10  -5  121.82    2.69
   2 -10  -4   55.07    1.58
   2 -10  -4   57.19    1.70
   2 -10  -4   57.93    1.71
   2 -10  -4   57.78    3.45
   2 -10  -4   58.65    1.88
   2 -10  -4   58.96    3.67
   2 -10  -4   62.24    1.82
   2 -10  -3  130.50    2.71
   2 -10  -3  136.45    5.08
   2 -10  -3  127.51    4.88
   2 -10  -3  117.63    2.59
   2 -10  -3  129.72    2.64
   2 -10  -3  127.51    2.70
   2 -10  -3  123.49    2.53
   2 -10  -2   37.99    1.43
   2 -10  -2   35.44    2.77
   2 -10  -2   35.97    3.41
   2 -10  -2   38.38    1.34
   2 -10  -2   36.25    1.36
   2 -10  -2   38.33    1.32
   2 -10  -2   37.30    1.42
   2 -10  -2   32.16    1.35
   2 -10  -2   34.20    1.24
   2 -10  -1  354.68    5.73
   2 -10  -1  362.03    5.82
   2 -10  -1  372.35    8.93
   2 -10  -1  347.99    8.50
   2 -10  -1  348.36    5.89
   2 -10  -1  346.63    5.75
   2 -10  -1  344.72    5.82
   2 -10   0   22.66    1.09
   2 -10   0   24.58    1.15
   2 -10   0   24.18    1.12
   2 -10   0   22.91    3.22
   2 -10   0   26.06    2.40
   2 -10   0   22.73    1.11
   2 -10   0   22.96    1.32
   2 -10   1  202.57    3.76
   2 -10   1  198.26    3.87
   2 -10   1  188.88    3.63
   2 -10   1  189.56    5.48
   2 -10   1  195.80    5.84
   2 -10   1  200.86    6.26
   2 -10   2   10.45    1.58
   2 -10   2   12.81    2.64
   2 -10   2   10.32    1.80
   2 -10   2    9.11    0.86
   2 -10   2    9.15    0.88
   2 -10   2    9.02    0.89
   2 -10   2   10.02    0.84
   2 -10   2    9.06    1.17
   2 -10   2    8.86    0.89
   2 -10   3  161.94    5.09
   2 -10   3  172.13    5.65
   2 -10   3  161.94    3.35
   2 -10   3  166.91    5.27
   2 -10   3  167.18    3.47
   2 -10   3  166.45    3.42
   2 -10   3  172.65    3.35
   2 -10   3  167.06    3.37
   2 -10   3  174.91    3.34
   2 -10   3  167.83    3.41
   2 -10   3  175.67    3.54
   2 -10   4    5.63    2.39
   2 -10   4    6.05    1.64
   2 -10   4    5.96    1.08
   2 -10   4    5.76    1.42
   2 -10   4    6.56    0.87
   2 -10   4    5.66    0.92
   2 -10   4    5.68    0.84
   2 -10   4    6.21    0.83
   2 -10   4    6.24    0.79
   2 -10   4    6.82    0.85
   2 -10   4    7.35    1.17
   2 -10   5  250.48    4.52
   2 -10   5  250.89    4.45
   2 -10   5  247.04    4.41
   2 -10   5  224.78    4.25
   2 -10   5  222.19    6.23
   2 -10   5  229.40    6.60
   2 -10   5  241.04    4.46
   2 -10   5  257.25    4.62
   2 -10   6    4.62    0.79
   2 -10   6    3.64    0.83
   2 -10   6    4.39    1.00
   2 -10   6    5.92    1.16
   2 -10   7  367.94    6.20
   2 -10   7  358.95    6.08
   2 -10   7  346.77    6.13
   2 -10   7  355.69    5.99
   2 -10   7  371.29    6.21
   2 -10   8   42.72    1.53
   2 -10   8   30.51    1.30
   2 -10   8   35.29    1.45
   2 -10   8   36.42    1.50
   2 -10   8   37.27    1.33
   2 -10   8   30.36    1.31
   2 -10   8   44.00    1.63
   2 -10   9   78.93    2.13
   2 -10   9   94.09    2.31
   2 -10   9   93.51    2.31
   2 -10   9   93.92    2.27
   2 -10   9   95.14    2.13
   2 -10   9   80.04    2.14
   2 -10   9   95.25    2.24
   2 -10  10   24.59    1.17
   2 -10  10   23.97    1.17
   2 -10  10   24.56    1.10
   2 -10  11   21.16    1.03
   2 -10  11   21.73    1.00
   2 -10  11   17.91    0.96
   2 -10  11   20.37    0.94
   2 -10  11   22.19    1.08
   2 -10  12   23.02    0.93
   2 -10  12   20.84    0.92
   2 -10  13   30.15    1.07
   2 -10  13   27.88    0.86
   2 -10  14   32.14    0.91
   2  -9 -15   27.22    0.82
   2  -9 -15   28.15    0.85
   2  -9 -14    0.82    0.56
   2  -9 -14    0.50    0.61
   2  -9 -14    0.93    0.56
   2  -9 -13   78.07    1.92
   2  -9 -13   73.64    1.85
   2  -9 -13   89.23    2.02
   2  -9 -13   86.50    1.94
   2  -9 -12   57.00    1.76
   2  -9 -12   56.33    1.68
   2  -9 -11  125.31    2.82
   2  -9 -11  129.20    2.72
   2  -9 -11  133.72    2.87
   2  -9 -10  176.11    3.56
   2  -9 -10  176.28    3.45
   2  -9 -10  184.22    3.62
   2  -9 -10  177.31    3.62
   2  -9  -9   76.67    2.12
   2  -9  -9   79.10    2.10
   2  -9  -9   82.39    2.22
   2  -9  -9   76.55    2.18
   2  -9  -8   38.74    1.49
   2  -9  -8   39.50    1.51
   2  -9  -8   38.40    1.54
   2  -9  -7    6.22    0.85
   2  -9  -7    6.62    1.01
   2  -9  -7    5.92    1.03
   2  -9  -7    5.74    0.89
   2  -9  -6  252.18    4.47
   2  -9  -6  242.10    4.16
   2  -9  -6  246.32    4.36
   2  -9  -6  233.87    4.24
   2  -9  -6  245.67    6.56
   2  -9  -5  118.94    2.55
   2  -9  -5  119.97    2.63
   2  -9  -5  131.99    4.76
   2  -9  -5  121.82    2.65
   2  -9  -5  132.12    2.74
   2  -9  -4   74.77    3.71
   2  -9  -4   80.21    3.93
   2  -9  -4   75.66    1.89
   2  -9  -4   71.93    1.82
   2  -9  -4   80.02    1.95
   2  -9  -4   77.52    1.94
   2  -9  -4   82.47    2.05
   2  -9  -3    8.88    0.96
   2  -9  -3    6.79    1.81
   2  -9  -3    9.09    2.50
   2  -9  -3    7.95    0.73
   2  -9  -3    7.89    0.67
   2  -9  -3    8.00    0.71
   2  -9  -3    8.35    0.68
   2  -9  -3    8.60    0.82
   2  -9  -3    6.75    0.81
   2  -9  -3    7.49    0.67
   2  -9  -2   51.64    1.55
   2  -9  -2   49.98    2.98
   2  -9  -2   53.09    3.60
   2  -9  -2   49.91    1.45
   2  -9  -2   44.02    1.44
   2  -9  -2   46.90    1.50
   2  -9  -2   46.10    1.38
   2  -9  -2   41.77    1.47
   2  -9  -1    6.27    0.85
   2  -9  -1    6.79    0.69
   2  -9  -1    6.43    1.67
   2  -9  -1    6.98    2.94
   2  -9  -1    7.09    0.82
   2  -9  -1    5.33    0.92
   2  -9  -1    6.23    0.69
   2  -9   0  299.19    7.23
   2  -9   0  313.54    8.19
   2  -9   0  295.27    4.98
   2  -9   0  309.85    4.88
   2  -9   0  292.15    4.86
   2  -9   0  290.34    4.93
   2  -9   0  286.22    4.94
   2  -9   0  301.83    5.16
   2  -9   1    1.16    1.02
   2  -9   1    0.32    1.30
   2  -9   1   -0.84    2.61
   2  -9   1    0.29    0.57
   2  -9   1    0.16    0.59
   2  -9   1    0.11    0.63
   2  -9   1    0.40    0.69
   2  -9   1    0.27    0.57
   2  -9   1    0.28    1.04
   2  -9   2  163.27    4.98
   2  -9   2  158.26    5.39
   2  -9   2  167.40    4.82
   2  -9   2  174.84    3.37
   2  -9   2  178.96    3.22
   2  -9   2  172.13    3.34
   2  -9   2  171.70    3.29
   2  -9   2  168.83    3.19
   2  -9   2  159.28    3.18
   2  -9   2  161.71    3.46
   2  -9   3    9.31    1.42
   2  -9   3    9.60    2.45
   2  -9   3    8.72    1.58
   2  -9   3    8.17    0.83
   2  -9   3    8.39    0.90
   2  -9   3    8.69    0.88
   2  -9   3    8.64    0.83
   2  -9   3    9.49    0.81
   2  -9   3    9.04    0.83
   2  -9   3    9.91    1.13
   2  -9   4  258.66    4.35
   2  -9   4  260.47    4.50
   2  -9   4  222.65    4.24
   2  -9   4  234.25    6.51
   2  -9   4  240.02    6.22
   2  -9   4  231.70    6.18
   2  -9   4  258.18    4.39
   2  -9   4  246.83    4.34
   2  -9   4  243.22    4.40
   2  -9   4  244.75    4.50
   2  -9   5   16.31    1.07
   2  -9   5   15.14    1.10
   2  -9   5   14.16    0.87
   2  -9   5   17.72    2.51
   2  -9   5   16.46    1.83
   2  -9   5   14.51    1.12
   2  -9   5   17.08    1.01
   2  -9   5   17.12    1.04
   2  -9   5   16.98    1.27
   2  -9   6   98.27    2.33
   2  -9   6   95.63    2.41
   2  -9   6   92.13    2.32
   2  -9   6   92.32    2.30
   2  -9   6   95.99    2.26
   2  -9   6   98.84    2.47
   2  -9   7  101.50    2.47
   2  -9   7  103.75    2.39
   2  -9   7  101.07    2.44
   2  -9   7   99.07    2.54
   2  -9   7  108.36    2.60
   2  -9   8  238.49    4.38
   2  -9   8  237.40    4.27
   2  -9   8  240.70    4.35
   2  -9   8  240.05    4.54
   2  -9   8  234.10    4.43
   2  -9   8  244.38    4.43
   2  -9   9   51.49    1.58
   2  -9   9   52.10    1.72
   2  -9   9   51.18    1.79
   2  -9   9   50.66    1.72
   2  -9   9   55.15    1.71
   2  -9   9   56.29    1.77
   2  -9  10  157.13    3.06
   2  -9  10  154.20    3.17
   2  -9  10  165.19    3.33
   2  -9  10  154.35    3.17
   2  -9  10  159.03    3.19
   2  -9  10  163.43    3.36
   2  -9  11   58.47    1.81
   2  -9  11   60.76    1.75
   2  -9  11   62.67    1.84
   2  -9  11   65.51    1.76
   2  -9  12   24.63    1.10
   2  -9  12   24.53    1.05
   2  -9  12   23.59    1.00
   2  -9  12   22.27    1.09
   2  -9  12   23.63    1.00
   2  -9  12   20.22    1.05
   2  -9  13   40.35    1.25
   2  -9  13   38.90    1.28
   2  -9  13   41.05    1.30
   2  -9  14   35.19    1.14
   2  -9  14   33.08    0.96
   2  -9  14   35.72    1.04
   2  -9  15   37.75    0.93
   2  -8 -16    9.65    0.44
   2  -8 -15    1.77    0.50
   2  -8 -15    2.24    0.52
   2  -8 -14   38.21    1.23
   2  -8 -14   39.56    1.26
   2  -8 -14   36.20    1.19
   2  -8 -14   37.91    1.26
   2  -8 -14   41.44    1.34
   2  -8 -13    7.69    0.79
   2  -8 -13    7.44    0.92
   2  -8 -13    8.44    1.04
   2  -8 -12   99.62    2.41
   2  -8 -12   90.97    2.34
   2  -8 -11    7.10    0.95
   2  -8 -11    7.45    1.16
   2  -8 -11    7.86    0.92
   2  -8 -11    6.40    1.03
   2  -8 -10  178.59    3.61
   2  -8 -10  179.27    3.52
   2  -8 -10  182.46    3.60
   2  -8 -10  175.10    3.64
   2  -8  -9  118.42    2.74
   2  -8  -9  119.58    2.69
   2  -8  -9  119.87    2.81
   2  -8  -8  166.31    3.36
   2  -8  -8  163.14    3.26
   2  -8  -8  166.68    3.36
   2  -8  -8  169.37    3.44
   2  -8  -7   53.36    1.66
   2  -8  -7   51.32    1.65
   2  -8  -7   55.32    1.74
   2  -8  -7   53.98    1.72
   2  -8  -6   49.44    1.59
   2  -8  -6   53.31    1.59
   2  -8  -6   49.58    1.53
   2  -8  -6   56.19    1.71
   2  -8  -6   48.40    1.53
   2  -8  -6   50.34    3.10
   2  -8  -5  198.45    3.63
   2  -8  -5  194.99    3.54
   2  -8  -5  203.90    5.65
   2  -8  -5  191.56    3.53
   2  -8  -5  187.58    3.43
   2  -8  -4   72.76    1.80
   2  -8  -4   71.40    1.79
   2  -8  -4   70.18    3.42
   2  -8  -4   71.45    3.53
   2  -8  -4   75.36    1.90
   2  -8  -3  242.68    4.26
   2  -8  -3  250.11    6.56
   2  -8  -3  256.27    6.58
   2  -8  -3  264.57    4.33
   2  -8  -2   12.13    0.85
   2  -8  -2   11.63    1.79
   2  -8  -2   12.44    2.74
   2  -8  -2   12.41    0.94
   2  -8  -1  546.17   10.69
   2  -8  -1  543.21   11.78
   2  -8  -1  559.77    8.27
   2  -8   0   31.34    2.25
   2  -8   0   34.06    4.00
   2  -8   0   30.54    1.52
   2  -8   0   32.50    1.16
   2  -8   1  315.34    8.11
   2  -8   1  325.49    5.22
   2  -8   1  334.52    5.32
   2  -8   1  344.82    5.92
   2  -8   2    1.22    0.58
   2  -8   2    0.85    1.33
   2  -8   2    0.76    2.24
   2  -8   2    0.44    0.97
   2  -8   2    0.59    0.53
   2  -8   2    0.88    1.07
   2  -8   3  494.42    7.56
   2  -8   3  511.34    7.38
   2  -8   3  462.30    9.26
   2  -8   3  456.91    9.37
   2  -8   3  445.97    9.57
   2  -8   3  500.82    7.50
   2  -8   3  481.94    7.40
   2  -8   3  462.71    7.63
   2  -8   4   53.11    1.50
   2  -8   4   49.85    1.57
   2  -8   4   47.43    1.40
   2  -8   4   54.63    1.53
   2  -8   4   50.83    1.56
   2  -8   4   50.19    2.56
   2  -8   4   50.85    3.09
   2  -8   4   52.71    2.57
   2  -8   4   48.34    1.56
   2  -8   4   50.80    1.49
   2  -8   4   51.58    1.53
   2  -8   4   49.70    1.68
   2  -8   5  362.15    5.91
   2  -8   5  362.94    5.65
   2  -8   5  351.49    5.77
   2  -8   5  369.29    5.77
   2  -8   5  337.10    7.69
   2  -8   5  330.16    7.44
   2  -8   5  319.29    5.52
   2  -8   5  348.77    5.72
   2  -8   5  354.12    5.78
   2  -8   5  358.97    5.84
   2  -8   6   12.30    0.98
   2  -8   6   12.08    1.02
   2  -8   6   11.43    0.88
   2  -8   6   11.68    1.02
   2  -8   6   11.59    0.92
   2  -8   6   11.69    1.11
   2  -8   7  229.77    4.24
   2  -8   7  225.06    4.08
   2  -8   7  225.52    4.33
   2  -8   7  225.62    4.21
   2  -8   7  228.82    4.13
   2  -8   7  226.18    4.23
   2  -8   7  234.68    4.25
   2  -8   8   92.73    2.26
   2  -8   8   89.13    2.33
   2  -8   8   88.58    2.24
   2  -8   8   89.16    2.44
   2  -8   8   93.70    2.34
   2  -8   8   97.01    2.36
   2  -8   9  225.31    4.25
   2  -8   9  228.23    4.15
   2  -8   9  228.20    4.42
   2  -8   9  229.85    4.15
   2  -8   9  221.11    4.10
   2  -8  10  185.78    3.59
   2  -8  10  186.42    3.71
   2  -8  10  203.75    3.87
   2  -8  10  185.62    3.63
   2  -8  10  185.69    3.89
   2  -8  10  201.29    3.75
   2  -8  11   54.91    1.71
   2  -8  11   54.72    1.59
   2  -8  11   54.23    1.78
   2  -8  11   55.16    1.86
   2  -8  11   56.67    1.70
   2  -8  11   52.39    1.66
   2  -8  12   78.32    2.15
   2  -8  12   86.80    2.05
   2  -8  13   18.02    0.78
   2  -8  13   20.29    0.97
   2  -8  13   18.10    1.04
   2  -8  13   19.11    0.90
   2  -8  13   18.93    1.03
   2  -8  13   20.04    0.96
   2  -8  14   24.83    1.00
   2  -8  14   22.32    1.01
   2  -8  14   22.98    0.87
   2  -8  14   25.88    1.06
   2  -8  14   26.48    0.98
   2  -8  15    5.88    0.53
   2  -8  15    6.72    0.60
   2  -8  15    6.94    0.53
   2  -8  15    7.63    0.60
   2  -7 -16    4.19    0.45
   2  -7 -15   54.84    1.38
   2  -7 -15   57.60    1.41
   2  -7 -15   58.35    1.43
   2  -7 -14    6.90    1.01
   2  -7 -14    7.40    0.78
   2  -7 -14    7.31    0.78
   2  -7 -14    7.67    0.76
   2  -7 -14    6.74    0.82
   2  -7 -13   93.04    2.22
   2  -7 -12    8.36    0.92
   2  -7 -12   10.90    1.22
   2  -7 -12    9.39    0.96
   2  -7 -12    9.47    0.97
   2  -7 -12   10.39    1.07
   2  -7 -11  141.19    3.12
   2  -7 -11  146.70    3.08
   2  -7 -11  137.16    3.10
   2  -7 -11  143.58    3.07
   2  -7 -10   12.45    1.08
   2  -7 -10   10.71    1.27
   2  -7 -10   10.44    1.10
   2  -7 -10   11.98    1.09
   2  -7  -9  127.29    2.85
   2  -7  -9  126.15    2.82
   2  -7  -9  128.82    2.84
   2  -7  -9  127.61    2.67
   2  -7  -9  130.15    2.91
   2  -7  -8   60.23    1.79
   2  -7  -8   58.18    1.82
   2  -7  -8   59.15    1.82
   2  -7  -8   57.45    1.62
   2  -7  -8   62.67    1.86
   2  -7  -7  205.99    3.76
   2  -7  -7  191.93    3.64
   2  -7  -7  206.51    3.75
   2  -7  -7  206.28    3.63
   2  -7  -7  203.34    3.81
   2  -7  -6  356.99    5.77
   2  -7  -6  348.41    5.68
   2  -7  -6  353.40    7.56
   2  -7  -6  374.95    5.75
   2  -7  -6  363.62    5.62
   2  -7  -5  123.09    2.52
   2  -7  -5  126.79    2.56
   2  -7  -5  126.74    2.43
   2  -7  -5  120.27    4.15
   2  -7  -5  116.39    2.43
   2  -7  -4  280.24    6.81
   2  -7  -4  296.25    4.72
   2  -7  -4  279.67    4.58
   2  -7  -4  284.23    4.65
   2  -7  -3  159.55    2.94
   2  -7  -3  147.68    4.58
   2  -7  -2  207.71    3.55
   2  -7  -1  214.95    3.62
   2  -7   0 1032.61   14.48
   2  -7   0 1026.17   16.69
   2  -7   1   30.26    1.08
   2  -7   1   31.15    2.03
   2  -7   2  375.95    5.78
   2  -7   2  368.66    7.53
   2  -7   3   50.20    1.35
   2  -7   3   52.35    2.48
   2  -7   3   54.29    1.71
   2  -7   3   56.29    1.43
   2  -7   4  670.12   11.89
   2  -7   4  677.71    9.99
   2  -7   4  691.13   10.07
   2  -7   4  687.51   10.16
   2  -7   5   13.53    0.96
   2  -7   5   12.64    0.96
   2  -7   5   14.89    0.89
   2  -7   5   13.21    0.83
   2  -7   5   13.41    0.86
   2  -7   5   14.75    1.08
   2  -7   6  415.62    6.56
   2  -7   6  391.36    6.39
   2  -7   6  420.94    6.39
   2  -7   6  376.82    6.31
   2  -7   6  394.74    6.34
   2  -7   7   77.06    1.99
   2  -7   7   72.47    2.10
   2  -7   7   73.71    2.04
   2  -7   7   75.76    1.96
   2  -7   7   73.61    1.99
   2  -7   7   78.83    2.05
   2  -7   8   37.05    1.43
   2  -7   8   37.18    1.46
   2  -7   8   41.39    1.46
   2  -7   8   37.09    1.53
   2  -7   9    3.83    0.98
   2  -7   9    4.22    0.80
   2  -7   9    4.69    0.87
   2  -7   9    3.71    0.87
   2  -7   9    3.49    0.80
   2  -7  10  516.03    8.27
   2  -7  10  508.83    8.14
   2  -7  10  534.94    8.33
   2  -7  10  519.15    8.02
   2  -7  10  520.25    8.19
   2  -7  11   30.66    1.27
   2  -7  11   28.21    1.40
   2  -7  11   31.63    1.43
   2  -7  11   30.66    1.31
   2  -7  11   31.08    1.33
   2  -7  12  101.70    2.30
   2  -7  12  100.47    2.45
   2  -7  12   99.15    2.35
   2  -7  12  105.99    2.33
   2  -7  12  101.79    2.63
   2  -7  13  197.45    3.47
   2  -7  13  165.44    3.17
   2  -7  14   16.61    0.74
   2  -7  14   19.63    0.96
   2  -7  14   19.95    1.06
   2  -7  14   18.63    0.81
   2  -7  14   18.65    1.04
   2  -7  14   20.89    0.96
   2  -7  15   16.64    0.85
   2  -7  15   16.65    0.89
   2  -7  15   16.59    0.77
   2  -7  16   10.75    0.59
   2  -7  16   10.84    0.55
   2  -6 -16  132.89    2.33
   2  -6 -16  140.37    2.36
   2  -6 -15    1.44    0.58
   2  -6 -15    1.64    0.64
   2  -6 -15    1.16    0.57
   2  -6 -14  213.58    3.82
   2  -6 -14  209.22    3.82
   2  -6 -14  226.29    3.84
   2  -6 -14  222.04    3.67
   2  -6 -14  200.36    3.81
   2  -6 -13   -0.23    0.75
   2  -6 -13    0.68    0.75
   2  -6 -13    0.16    0.83
   2  -6 -12  104.31    2.57
   2  -6 -12  107.52    2.56
   2  -6 -12  108.66    2.58
   2  -6 -12  102.54    2.38
   2  -6 -12  103.96    2.48
   2  -6 -12   97.99    2.22
   2  -6 -11    1.35    1.20
   2  -6 -11    0.62    0.86
   2  -6 -11    0.60    0.90
   2  -6 -11    1.08    0.54
   2  -6 -11    0.92    0.84
   2  -6 -10  164.27    3.38
   2  -6 -10  165.29    3.45
   2  -6  -9   69.41    1.98
   2  -6  -9   67.56    2.02
   2  -6  -9   67.01    1.94
   2  -6  -9   68.31    1.79
   2  -6  -9   68.06    1.99
   2  -6  -8  172.89    3.33
   2  -6  -8  159.66    3.25
   2  -6  -8  166.62    3.25
   2  -6  -8  165.39    3.15
   2  -6  -8  171.50    3.36
   2  -6  -7  168.92    3.19
   2  -6  -7  156.24    3.11
   2  -6  -7  165.23    3.15
   2  -6  -7  161.21    3.03
   2  -6  -7  170.68    3.24
   2  -6  -6    9.93    0.78
   2  -6  -6    9.84    0.90
   2  -6  -6   10.16    0.69
   2  -6  -6    9.63    0.81
   2  -6  -6    9.77    0.99
   2  -6  -5   89.87    2.02
   2  -6  -5   91.63    1.92
   2  -6  -4  248.22    4.14
   2  -6  -4  249.14    4.03
   2  -6  -4  259.49    5.89
   2  -6  -3  135.47    2.56
   2  -6  -3  137.45    2.46
   2  -6  -3  133.22    4.20
   2  -6  -2  422.00    6.30
   2  -6  -2  417.85    6.23
   2  -6  -2  401.78    8.35
   2  -6  -2  418.16    8.21
   2  -6  -1  272.96    4.31
   2  -6  -1  268.15    5.93
   2  -6  -1  277.27    6.80
   2  -6   0   17.78    0.85
   2  -6   0   19.30    3.16
   2  -6   0   16.78    1.66
   2  -6   1  380.58    5.76
   2  -6   1  387.09    7.40
   2  -6   2  205.43    4.58
   2  -6   2  210.09    3.46
   2  -6   2  209.76    4.83
   2  -6   2  204.35    5.31
   2  -6   3  527.37    7.69
   2  -6   3  527.33    9.17
   2  -6   3  519.36    9.23
   2  -6   3  504.52    9.48
   2  -6   4    2.34    0.57
   2  -6   4    2.00    0.53
   2  -6   4    2.86    1.91
   2  -6   4    3.05    1.08
   2  -6   5  166.11    3.08
   2  -6   5  173.77    3.12
   2  -6   6   62.59    1.79
   2  -6   6   66.38    1.75
   2  -6   6   66.91    1.72
   2  -6   6   69.15    1.77
   2  -6   7  265.44    4.57
   2  -6   7  253.90    4.59
   2  -6   7  262.48    4.46
   2  -6   7  251.05    4.52
   2  -6   7  265.98    4.52
   2  -6   8    8.83    1.04
   2  -6   8    9.33    0.88
   2  -6   8   10.75    0.97
   2  -6   8   10.61    0.90
   2  -6   9  640.97    9.66
   2  -6   9  621.29    9.37
   2  -6   9  637.04    9.64
   2  -6  10   74.14    2.21
   2  -6  10   76.20    2.11
   2  -6  11  300.57    5.44
   2  -6  11  296.10    5.28
   2  -6  11  304.63    5.44
   2  -6  11  306.32    5.31
   2  -6  11  310.93    5.12
   2  -6  12   32.07    1.34
   2  -6  12   32.26    1.53
   2  -6  12   36.41    1.38
   2  -6  12   31.67    1.30
   2  -6  13   50.96    1.74
   2  -6  13   49.59    1.55
   2  -6  13   53.35    1.65
   2  -6  13   55.23    1.52
   2  -6  14   74.98    1.93
   2  -6  14   64.84    1.66
   2  -6  14   70.60    1.65
   2  -6  14   80.57    1.94
   2  -6  15    6.65    0.74
   2  -6  15    5.50    0.51
   2  -6  15    6.99    0.76
   2  -6  15    7.73    0.79
   2  -6  15    7.86    0.71
   2  -6  16    0.81    0.48
   2  -6  16    0.87    0.44
   2  -6  16    1.35    0.51
   2  -6  16    0.84    0.49
   2  -6  17   33.40    0.80
   2  -5 -16    0.35    0.49
   2  -5 -16    0.34    0.46
   2  -5 -15   76.97    1.71
   2  -5 -15   70.95    1.75
   2  -5 -15   74.92    1.76
   2  -5 -15   74.31    1.75
   2  -5 -14    0.28    0.85
   2  -5 -13   51.65    1.71
   2  -5 -13   51.14    1.77
   2  -5 -13   51.65    1.66
   2  -5 -13   50.06    1.64
   2  -5 -13   47.30    1.59
   2  -5 -12   93.37    2.49
   2  -5 -12  101.22    2.52
   2  -5 -12   95.89    2.44
   2  -5 -12   99.12    2.37
   2  -5 -12  101.63    2.41
   2  -5 -12   95.43    2.19
   2  -5 -11  286.00    5.09
   2  -5 -11  280.24    4.92
   2  -5 -11  274.16    4.80
   2  -5 -11  290.04    5.17
   2  -5 -11  289.61    5.03
   2  -5 -10    8.68    1.00
   2  -5 -10    7.51    1.27
   2  -5 -10    6.32    0.98
   2  -5 -10    6.25    0.70
   2  -5 -10    9.51    1.01
   2  -5  -9  172.59    3.40
   2  -5  -9  166.16    3.35
   2  -5  -9  164.38    3.19
   2  -5  -9  167.34    3.27
   2  -5  -9  172.95    3.42
   2  -5  -8    0.97    0.72
   2  -5  -8    1.05    0.73
   2  -5  -8    1.73    0.83
   2  -5  -8    1.48    0.55
   2  -5  -8    2.22    1.03
   2  -5  -7  109.80    2.36
   2  -5  -7  110.28    2.34
   2  -5  -7  107.69    2.24
   2  -5  -7  111.52    2.40
   2  -5  -7  106.79    2.37
   2  -5  -6   42.48    2.29
   2  -5  -6   42.07    1.34
   2  -5  -6   43.52    1.23
   2  -5  -5  149.33    2.75
   2  -5  -5  148.09    2.68
   2  -5  -4   31.05    1.10
   2  -5  -4   30.52    0.96
   2  -5  -3  202.86    4.88
   2  -5  -3  195.61    4.85
   2  -5  -3  196.50    3.33
   2  -5  -3  201.39    3.26
   2  -5  -2   38.31    2.59
   2  -5  -2   37.71    2.11
   2  -5  -2   37.68    1.12
   2  -5  -2   35.33    0.97
   2  -5  -1  282.67    6.04
   2  -5  -1  274.29    5.62
   2  -5  -1  253.68    4.00
   2  -5  -1  264.76    4.08
   2  -5   0  739.97   11.93
   2  -5   0  723.71   10.39
   2  -5   1  459.92    8.07
   2  -5   1  452.55    6.66
   2  -5   2  655.99   10.78
   2  -5   2  668.86   11.22
   2  -5   2  642.75    9.41
   2  -5   2  688.18    9.48
   2  -5   2  665.52   10.57
   2  -5   3   23.00    1.42
   2  -5   3   22.25    1.54
   2  -5   3   23.39    2.18
   2  -5   3   23.07    0.83
   2  -5   4  161.80    4.28
   2  -5   4  159.75    3.93
   2  -5   4  165.62    2.73
   2  -5   4  165.66    2.88
   2  -5   4  171.53    2.92
   2  -5   5   49.41    2.51
   2  -5   5   46.87    1.30
   2  -5   5   50.99    1.34
   2  -5   6   59.22    2.60
   2  -5   6   61.26    1.56
   2  -5   6   59.60    1.56
   2  -5   7   55.87    1.62
   2  -5   7   52.56    1.51
   2  -5   8  386.44    6.20
   2  -5   8  366.23    5.93
   2  -5   8  379.94    6.10
   2  -5   9    0.19    0.74
   2  -5   9    0.46    0.71
   2  -5  10  157.37    3.22
   2  -5  10  161.62    3.35
   2  -5  10  157.98    3.33
   2  -5  11    4.68    0.89
   2  -5  12  107.58    2.61
   2  -5  12  103.80    2.49
   2  -5  13   26.51    1.26
   2  -5  13   27.97    1.19
   2  -5  14   73.58    1.94
   2  -5  14   64.68    1.75
   2  -5  15    3.60    0.70
   2  -5  15    3.16    0.55
   2  -5  15    3.66    0.79
   2  -5  16   63.17    1.59
   2  -5  16   64.53    1.61
   2  -5  16   66.59    1.48
   2  -5  17    2.53    0.45
   2  -5  17    2.17    0.45
   2  -5  17    2.40    0.37
   2  -4 -16   75.10    1.60
   2  -4 -16   72.66    1.62
   2  -4 -15    5.85    0.74
   2  -4 -15    6.10    0.71
   2  -4 -15    6.73    0.87
   2  -4 -15    6.19    0.73
   2  -4 -14   11.10    1.04
   2  -4 -13    8.94    0.97
   2  -4 -13    9.23    1.22
   2  -4 -13    9.70    1.00
   2  -4 -13    9.41    0.96
   2  -4 -13    8.58    1.10
   2  -4 -13    7.95    0.91
   2  -4 -12  124.59    2.86
   2  -4 -12  123.86    2.79
   2  -4 -12  114.60    2.61
   2  -4 -12  109.30    2.47
   2  -4 -12  117.95    2.69
   2  -4 -12  122.22    2.80
   2  -4 -11    3.35    1.30
   2  -4 -11    1.64    0.86
   2  -4 -11    1.95    0.90
   2  -4 -11    1.81    1.09
   2  -4 -10  128.82    2.83
   2  -4 -10  131.86    2.92
   2  -4 -10  125.94    2.83
   2  -4 -10  119.06    2.67
   2  -4 -10  120.69    2.63
   2  -4  -9    5.18    1.13
   2  -4  -9    4.69    0.88
   2  -4  -9    6.32    0.86
   2  -4  -8  295.93    4.93
   2  -4  -8  280.34    4.83
   2  -4  -8  293.92    4.81
   2  -4  -8  293.86    4.94
   2  -4  -7  148.54    2.83
   2  -4  -7  146.37    2.76
   2  -4  -7  139.31    2.78
   2  -4  -7  147.56    2.87
   2  -4  -6   15.21    0.91
   2  -4  -5  106.00    3.14
   2  -4  -5   97.92    2.01
   2  -4  -4  248.88    5.16
   2  -4  -4  239.92    3.79
   2  -4  -3   24.08    2.12
   2  -4  -3   23.29    0.93
   2  -4  -3   22.31    0.77
   2  -4  -2 1113.82   16.90
   2  -4  -2 1104.34   15.25
   2  -4  -2 1091.71   15.29
   2  -4  -1   86.31    2.68
   2  -4  -1   89.36    3.07
   2  -4  -1   83.72    1.66
   2  -4  -1   85.60    1.58
   2  -4   0   45.45    1.93
   2  -4   0   46.64    2.51
   2  -4   0   43.93    1.09
   2  -4   0   43.14    0.98
   2  -4   1  258.63    5.05
   2  -4   1  262.89    4.00
   2  -4   2  614.54    9.98
   2  -4   2  643.58   10.44
   2  -4   2  633.46    8.96
   2  -4   2  646.40    9.85
   2  -4   3  868.07   12.94
   2  -4   3  821.33   13.28
   2  -4   3  816.61   12.85
   2  -4   3  864.54   11.90
   2  -4   4   71.18    2.82
   2  -4   4   73.93    1.55
   2  -4   4   75.00    1.57
   2  -4   5  218.66    3.41
   2  -4   5  209.18    3.52
   2  -4   5  214.35    3.53
   2  -4   6   61.94    1.51
   2  -4   6   57.88    2.46
   2  -4   6   59.99    1.51
   2  -4   7   12.26    0.82
   2  -4   7   12.96    0.87
   2  -4   7   12.40    0.79
   2  -4   8  329.29    5.27
   2  -4   8  327.89    5.35
   2  -4   8  338.15    5.55
   2  -4   8  326.54    5.37
   2  -4   9  265.43    4.29
   2  -4   9  279.77    4.97
   2  -4   9  276.86    4.78
   2  -4   9  283.78    4.67
   2  -4   9  286.43    4.76
   2  -4   9  277.18    4.71
   2  -4  10    0.49    0.76
   2  -4  10    1.42    0.74
   2  -4  10    0.39    0.80
   2  -4  10    0.78    0.77
   2  -4  10    1.01    0.69
   2  -4  11   92.53    2.48
   2  -4  11   93.12    2.31
   2  -4  12   32.53    1.52
   2  -4  12   38.67    1.45
   2  -4  13   45.00    1.68
   2  -4  13   48.76    1.65
   2  -4  14   65.61    1.93
   2  -4  14   83.70    2.12
   2  -4  14   78.05    1.96
   2  -4  14   65.40    1.67
   2  -4  15   50.77    1.71
   2  -4  15   51.68    1.48
   2  -4  15   54.16    1.65
   2  -4  16    7.60    0.77
   2  -4  16    5.93    0.56
   2  -4  16    8.07    0.83
   2  -4  17  108.45    2.07
   2  -4  17  109.12    2.11
   2  -4  17  110.97    1.99
   2  -3 -17   23.79    0.67
   2  -3 -16    3.91    0.58
   2  -3 -16    4.29    0.60
   2  -3 -16    4.08    0.71
   2  -3 -15    7.61    0.76
   2  -3 -15    6.57    0.91
   2  -3 -15    7.12    0.76
   2  -3 -13   15.72    1.31
   2  -3 -13   14.15    1.07
   2  -3 -13   15.14    1.08
   2  -3 -13   15.27    1.23
   2  -3 -13   12.96    1.06
   2  -3 -12   48.55    1.78
   2  -3 -12   54.79    1.93
   2  -3 -12   50.36    1.75
   2  -3 -12   55.48    1.87
   2  -3 -12   49.76    1.62
   2  -3 -12   52.64    1.56
   2  -3 -11  239.54    4.44
   2  -3 -11  236.78    4.36
   2  -3 -11  232.09    4.31
   2  -3 -11  241.39    4.52
   2  -3 -10    4.51    1.21
   2  -3 -10    3.05    0.84
   2  -3 -10    3.62    0.87
   2  -3 -10    3.79    0.86
   2  -3  -9  558.66    8.52
   2  -3  -9  554.09    8.70
   2  -3  -9  574.52    8.67
   2  -3  -9  559.60    8.48
   2  -3  -8   47.64    1.59
   2  -3  -8   47.38    1.47
   2  -3  -7  291.54    4.71
   2  -3  -7  291.78    4.70
   2  -3  -6  226.37    3.72
   2  -3  -5 1278.75   17.93
   2  -3  -5 1352.54   19.07
   2  -3  -4    2.58    0.66
   2  -3  -4    3.31    1.67
   2  -3  -3  894.49   12.62
   2  -3  -3  966.31   13.95
   2  -3  -2  212.61    4.52
   2  -3  -1    5.25    1.77
   2  -3  -1    6.03    1.16
   2  -3   0  197.91    4.32
   2  -3   0  195.59    3.95
   2  -3   1   27.09    2.07
   2  -3   1   24.77    1.35
   2  -3   2  384.28    6.08
   2  -3   2  383.44    6.74
   2  -3   2  366.58    6.17
   2  -3   3  819.83   12.44
   2  -3   3  844.65   13.05
   2  -3   4 1373.06   18.79
   2  -3   4 1386.28   18.80
   2  -3   5  112.24    2.11
   2  -3   5  114.12    2.12
   2  -3   5  107.48    3.13
   2  -3   6  343.55    5.26
   2  -3   6  340.52    5.17
   2  -3   7    1.60    0.56
   2  -3   8  560.58    8.32
   2  -3   8  558.80    8.24
   2  -3   8  547.42    8.33
   2  -3   9   96.81    1.88
   2  -3   9  102.96    2.26
   2  -3   9  103.72    2.20
   2  -3   9   96.20    2.18
   2  -3   9   96.67    2.26
   2  -3  10  126.71    2.41
   2  -3  10  124.94    2.85
   2  -3  10  132.36    2.77
   2  -3  10  138.93    2.83
   2  -3  10  133.74    2.70
   2  -3  11   11.41    0.94
   2  -3  11   12.38    1.01
   2  -3  11   11.70    1.08
   2  -3  12   64.83    2.12
   2  -3  12   68.80    1.91
   2  -3  12   71.22    2.04
   2  -3  13   94.21    2.63
   2  -3  13  117.95    2.67
   2  -3  14  147.71    3.12
   2  -3  14  144.14    2.97
   2  -3  15    6.87    0.77
   2  -3  15    8.31    0.91
   2  -3  16  107.27    2.31
   2  -3  16  130.53    2.43
   2  -3  17   67.25    1.55
   2  -3  17   64.01    1.53
   2  -3  18    7.15    0.48
   2  -3  18    5.87    0.42
   2  -2 -17    7.43    0.50
   2  -2 -16   30.32    1.06
   2  -2 -15   24.16    1.17
   2  -2 -15   21.26    1.05
   2  -2 -15   22.56    1.01
   2  -2 -13   22.97    1.27
   2  -2 -13   24.64    1.27
   2  -2 -13   23.94    1.23
   2  -2 -13   25.60    1.43
   2  -2 -13   22.17    1.00
   2  -2 -12  205.01    3.98
   2  -2 -12  206.98    4.00
   2  -2 -12  206.63    4.07
   2  -2 -12  208.31    3.96
   2  -2 -12  202.60    3.94
   2  -2 -11    1.70    0.88
   2  -2 -11    2.11    1.22
   2  -2 -11    1.85    0.86
   2  -2 -11    1.78    1.13
   2  -2 -11    1.25    0.80
   2  -2 -10  146.42    3.10
   2  -2 -10  144.89    3.01
   2  -2 -10  139.44    2.96
   2  -2 -10  137.36    2.94
   2  -2  -9    1.68    1.05
   2  -2  -9    1.13    0.74
   2  -2  -9    0.64    0.74
   2  -2  -9    0.76    0.77
   2  -2  -8  557.22    8.31
   2  -2  -8  542.78    8.33
   2  -2  -8  538.65    8.17
   2  -2  -8  546.04    8.14
   2  -2  -7   58.38    1.54
   2  -2  -7   57.99    1.57
   2  -2  -6  275.63    4.36
   2  -2  -5   76.72    1.63
   2  -2  -4  599.96    8.50
   2  -2  -3   59.58    2.30
   2  -2  -2  338.36    5.86
   2  -2  -2  316.82    5.51
   2  -2  -1  862.10   12.91
   2  -2  -1  894.17   13.17
   2  -2   0   53.65    1.73
   2  -2   0   52.77    1.69
   2  -2   0   56.65    2.34
   2  -2   1 1937.62   27.31
   2  -2   1 2023.38   27.63
   2  -2   1 1974.01   27.78
   2  -2   2  169.88    2.95
   2  -2   2  162.04    3.00
   2  -2   2  172.53    3.35
   2  -2   2  166.78    3.77
   2  -2   3  179.88    3.99
   2  -2   3  178.39    3.19
   2  -2   4  205.63    4.31
   2  -2   5   57.87    1.31
   2  -2   5   62.31    1.31
   2  -2   6  470.59    6.65
   2  -2   6  441.61    6.70
   2  -2   7  458.08    6.83
   2  -2   7  462.89    6.89
   2  -2   8   41.98    1.25
   2  -2   8   43.31    1.31
   2  -2   9  784.51   11.27
   2  -2   9  783.94   11.38
   2  -2   9  742.95   11.31
   2  -2   9  732.07   11.40
   2  -2  10  102.56    2.05
   2  -2  10  104.65    2.36
   2  -2  10  113.68    2.46
   2  -2  10  112.43    2.35
   2  -2  11  535.71    8.37
   2  -2  11  558.65    8.42
   2  -2  11  548.70    8.24
   2  -2  12    5.40    0.88
   2  -2  12    5.79    0.89
   2  -2  12    6.51    0.98
   2  -2  13  336.19    5.74
   2  -2  13  339.12    5.83
   2  -2  13  334.02    5.78
   2  -2  13  332.37    5.56
   2  -2  14   42.87    1.52
   2  -2  14   42.54    1.62
   2  -2  15   53.61    1.77
   2  -2  15   61.99    1.76
   2  -2  16   24.08    1.12
   2  -2  16   33.42    1.18
   2  -2  17    8.33    0.62
   2  -2  17    8.63    0.68
   2  -2  17   10.50    0.73
   2  -2  17    9.47    0.65
   2  -2  18   15.56    0.74
   2  -2  18   16.48    0.72
   2  -1 -17   17.17    0.62
   2  -1 -16    2.74    0.73
   2  -1 -15   39.22    1.33
   2  -1 -15   39.25    1.27
   2  -1 -15   38.85    1.38
   2  -1 -14   12.76    0.99
   2  -1 -13  124.64    2.87
   2  -1 -13  125.06    2.79
   2  -1 -13  124.49    2.78
   2  -1 -13  123.65    2.80
   2  -1 -12   45.03    1.70
   2  -1 -12   46.97    1.78
   2  -1 -12   43.54    1.64
   2  -1 -12   44.00    1.63
   2  -1 -11  124.69    2.88
   2  -1 -11  135.98    3.03
   2  -1 -11  127.41    2.91
   2  -1 -11  132.47    2.92
   2  -1 -11  133.07    2.93
   2  -1 -10   14.05    1.29
   2  -1 -10   13.24    0.97
   2  -1 -10   12.68    1.04
   2  -1 -10   14.41    1.26
   2  -1 -10   12.67    1.01
   2  -1  -9  173.50    3.29
   2  -1  -9  179.29    3.43
   2  -1  -9  169.51    3.28
   2  -1  -9  177.37    3.34
   2  -1  -8    4.82    0.73
   2  -1  -8    4.23    0.75
   2  -1  -8    5.49    1.01
   2  -1  -8    5.56    0.79
   2  -1  -7  507.17    7.57
   2  -1  -6    2.11    0.69
   2  -1  -5  723.21   10.18
   2  -1  -4    0.81    0.59
   2  -1  -3    8.16    0.84
   2  -1  -2  244.78    4.46
   2  -1  -1 2404.82   33.54
   2  -1  -1 2437.02   33.55
   2  -1   0 4110.71   56.14
   2  -1   0 4124.15   56.18
   2  -1   1 5431.36   72.12
   2  -1   1 5197.07   72.13
   2  -1   2   26.06    1.23
   2  -1   2   24.34    1.87
   2  -1   3   49.03    1.55
   2  -1   3   45.61    0.93
   2  -1   4  396.72    6.41
   2  -1   5  197.60    3.63
   2  -1   6 1518.99   20.88
   2  -1   6 1530.65   20.93
   2  -1   7   34.23    1.03
   2  -1   7   34.35    1.06
   2  -1   8  304.14    4.83
   2  -1   8  308.93    4.94
   2  -1   9    3.55    0.61
   2  -1   9    4.77    0.77
   2  -1   9    3.96    0.73
   2  -1  10   94.94    1.91
   2  -1  10  107.31    2.20
   2  -1  10   88.82    2.17
   2  -1  10   99.86    2.31
   2  -1  10   99.19    2.22
   2  -1  11   11.95    0.78
   2  -1  11    8.90    0.86
   2  -1  11   11.92    0.95
   2  -1  11   12.03    1.02
   2  -1  12  241.96    4.21
   2  -1  12  266.95    4.67
   2  -1  12  259.21    4.46
   2  -1  12  246.84    4.59
   2  -1  13    8.33    0.91
   2  -1  13    8.31    1.02
   2  -1  13   10.20    0.99
   2  -1  13    9.09    0.93
   2  -1  14  263.97    4.80
   2  -1  14  277.33    4.84
   2  -1  14  273.76    4.97
   2  -1  15   57.34    1.73
   2  -1  15   48.97    1.80
   2  -1  16   33.80    1.26
   2  -1  16   27.81    1.27
   2  -1  17   16.34    0.84
   2  -1  17   14.87    0.84
   2  -1  18   28.15    0.94
   2  -1  18   17.32    0.60
   2   0 -16    0.76    0.70
   2   0 -15   48.33    1.52
   2   0 -13   42.28    1.55
   2   0 -13   41.77    1.61
   2   0 -13   44.71    1.70
   2   0 -12  221.09    4.17
   2   0 -12  221.17    4.18
   2   0 -12  229.31    4.31
   2   0 -12  217.27    4.16
   2   0 -11   58.91    1.85
   2   0 -11   61.36    1.86
   2   0 -11   60.79    1.97
   2   0 -11   57.79    1.91
   2   0 -10  323.82    5.43
   2   0 -10  319.56    5.42
   2   0 -10  307.76    5.30
   2   0 -10  311.81    5.34
   2   0 -10  331.33    5.55
   2   0  -9    1.91    0.98
   2   0  -9    1.67    0.72
   2   0  -9    1.61    0.76
   2   0  -9    2.09    0.97
   2   0  -8  314.86    5.12
   2   0  -8  320.74    5.14
   2   0  -8  333.53    5.24
   2   0  -8  335.08    5.32
   2   0  -5   20.87    1.42
   2   0  -5   18.79    0.90
   2   0  -4  494.84    6.98
   2   0  -4  490.59    8.20
   2   0  -4  482.35    7.68
   2   0  -3  232.35    4.20
   2   0  -2  313.92    5.35
   2   0  -1  273.80    4.77
   2   0   0  796.13   11.79
   2   0   1  225.95    4.12
   2   0   2 3584.52   48.98
   2   0   3  125.87    2.70
   2   0   4   47.97    1.52
   2   0   5  261.36    4.54
   2   0   6  283.73    4.35
   2   0   6  301.01    4.89
   2   0   7  437.66    6.39
   2   0   7  471.08    6.40
   2   0   8  191.07    3.27
   2   0   9  584.94    8.78
   2   0   9  623.26    8.67
   2   0  10   56.33    1.50
   2   0  10   52.82    1.29
   2   0  10   52.12    1.65
   2   0  10   52.91    1.55
   2   0  11  271.82    4.56
   2   0  11  253.23    4.24
   2   0  11  250.83    4.61
   2   0  11  280.42    4.77
   2   0  11  278.22    4.60
   2   0  12   55.99    1.55
   2   0  12   59.12    1.80
   2   0  12   57.31    1.82
   2   0  12   61.20    1.76
   2   0  12   61.21    1.89
   2   0  13  247.96    4.35
   2   0  13  257.06    4.47
   2   0  13  262.40    4.71
   2   0  14   16.34    1.16
   2   0  14   15.82    1.01
   2   0  14   18.23    1.14
   2   0  15  323.00    5.67
   2   0  15  363.13    5.86
   2   0  16   -0.12    0.64
   2   0  17   32.01    1.12
   2   0  17   34.55    1.24
   2   0  18   -0.06    0.37
   2   1 -16   47.44    1.25
   2   1 -15   66.69    1.75
   2   1 -15   67.95    1.65
   2   1 -14   44.00    1.51
   2   1 -13   45.55    1.71
   2   1 -13   47.84    1.68
   2   1 -13   46.30    1.59
   2   1 -12  235.09    4.33
   2   1 -12  227.46    4.27
   2   1 -12  232.88    4.43
   2   1 -11    6.33    0.96
   2   1 -11    6.86    0.93
   2   1 -11    7.28    1.01
   2   1 -11    5.93    1.26
   2   1 -10    1.83    0.82
   2   1 -10    1.85    0.78
   2   1 -10    1.51    0.83
   2   1 -10    1.16    1.09
   2   1  -9  223.51    3.97
   2   1  -9  224.38    3.98
   2   1  -9  227.31    4.07
   2   1  -9  211.44    3.86
   2   1  -9  214.25    3.90
   2   1  -9  200.84    5.52
   2   1  -8   34.71    1.25
   2   1  -8   33.07    1.21
   2   1  -8   33.02    1.26
   2   1  -8   36.49    1.36
   2   1  -8   36.44    1.35
   2   1  -8   36.97    2.17
   2   1  -7  269.19    4.34
   2   1  -7  265.00    4.31
   2   1  -7  263.50    5.89
   2   1  -5  678.98   11.16
   2   1  -5  706.41    9.67
   2   1  -4  324.78    4.70
   2   1  -4  313.80    5.89
   2   1  -4  304.37    5.34
   2   1  -3  758.23   11.72
   2   1  -3  769.93   11.43
   2   1  -2  172.34    3.53
   2   1  -2  183.39    3.52
   2   1  -1  346.91    5.81
   2   1   0    2.70    0.84
   2   1   1  575.16    8.85
   2   1   2   48.78    1.64
   2   1   3  439.53    6.57
   2   1   3  465.10    7.19
   2   1   4  724.33   10.83
   2   1   5 2025.12   28.19
   2   1   6  428.96    6.28
   2   1   6  441.71    6.28
   2   1   7  406.66    5.89
   2   1   7  372.70    6.15
   2   1   8  483.15    7.20
   2   1   9   28.83    1.08
   2   1   9   27.33    1.11
   2   1   9   25.08    1.03
   2   1  10  231.53    3.79
   2   1  10  235.53    4.14
   2   1  10  238.47    4.11
   2   1  10  227.10    4.11
   2   1  10  231.10    3.92
   2   1  11   17.28    0.90
   2   1  11   15.82    0.83
   2   1  11   13.64    0.94
   2   1  11   14.13    1.03
   2   1  11   16.38    1.14
   2   1  11   14.61    0.99
   2   1  12  159.53    3.12
   2   1  12  157.14    2.96
   2   1  12  168.64    3.36
   2   1  12  162.83    3.39
   2   1  12  167.71    3.43
   2   1  12  163.17    3.20
   2   1  13    8.35    0.90
   2   1  13    8.04    0.91
   2   1  13    7.97    1.05
   2   1  14   71.33    2.07
   2   1  14   75.65    2.09
   2   1  15   28.47    1.30
   2   1  15   30.17    1.34
   2   1  16   43.74    1.48
   2   1  16   52.60    1.61
   2   1  17    8.63    0.75
   2   1  17    5.01    0.76
   2   1  18   75.72    1.60
   2   1  19    5.09    0.40
   2   2 -16    4.31    0.65
   2   2 -15   75.87    1.82
   2   2 -15   76.15    1.74
   2   2 -14   48.16    1.62
   2   2 -14   48.80    1.56
   2   2 -13   37.94    1.58
   2   2 -13   38.15    1.51
   2   2 -12   73.50    2.18
   2   2 -12   72.48    2.04
   2   2 -12   76.08    2.19
   2   2 -11  107.27    2.62
   2   2 -11  103.14    2.50
   2   2 -11  108.21    2.64
   2   2 -10   17.42    1.09
   2   2 -10   17.47    1.11
   2   2 -10   17.02    1.17
   2   2 -10   17.17    1.32
   2   2 -10   17.96    1.87
   2   2  -9    1.32    0.74
   2   2  -9    1.52    0.75
   2   2  -9    2.34    0.72
   2   2  -9    2.18    1.03
   2   2  -9    3.13    1.25
   2   2  -8  248.02    4.24
   2   2  -8  241.49    4.14
   2   2  -8  239.16    4.14
   2   2  -8  226.98    5.76
   2   2  -8  234.25    4.10
   2   2  -7  122.29    3.76
   2   2  -7  126.80    2.49
   2   2  -6   24.34    0.78
   2   2  -6   24.71    1.64
   2   2  -5   73.58    1.44
   2   2  -5   64.49    1.81
   2   2  -4  166.37    2.61
   2   2  -4  157.42    3.69
   2   2  -3  178.45    2.78
   2   2  -3  175.67    3.74
   2   2  -3  174.88    3.54
   2   2  -2  675.10   10.59
   2   2  -2  716.70   10.63
   2   2  -1  236.25    4.35
   2   2  -1  255.51    4.54
   2   2   0   15.49    0.94
   2   2   0   14.75    1.08
   2   2   1  256.82    4.62
   2   2   2 3859.72   52.11
   2   2   2 3774.30   51.67
   2   2   3   40.52    1.27
   2   2   3   39.83    1.52
   2   2   4   52.91    1.69
   2   2   5  571.45    8.89
   2   2   6  189.24    3.10
   2   2   6  183.61    3.68
   2   2   7   98.15    1.87
   2   2   7   94.85    1.88
   2   2   8  328.66    5.06
   2   2   8  317.48    5.07
   2   2   9   15.10    0.87
   2   2   9   12.69    0.83
   2   2   9   12.59    0.80
   2   2  10  220.47    3.54
   2   2  10  224.13    3.75
   2   2  10  218.98    3.78
   2   2  10  218.44    3.83
   2   2  10  207.60    3.81
   2   2  10  203.37    3.85
   2   2  10  218.32    3.67
   2   2  11  166.85    2.98
   2   2  11  170.27    3.16
   2   2  11  171.63    3.35
   2   2  11  175.50    3.36
   2   2  11  174.92    3.33
   2   2  12   69.54    1.70
   2   2  12   68.51    1.77
   2   2  12   71.06    1.99
   2   2  12   71.29    2.09
   2   2  12   70.31    1.93
   2   2  13  170.92    3.15
   2   2  13  170.65    3.53
   2   2  14    1.77    0.93
   2   2  14    1.14    0.77
   2   2  14    0.96    0.81
   2   2  15  155.29    3.19
   2   2  15  173.16    3.33
   2   2  16   11.64    0.93
   2   2  16   14.06    1.00
   2   2  17   73.70    1.83
   2   2  18   13.58    0.76
   2   2  19   37.58    0.91
   2   3 -16   24.97    0.79
   2   3 -15   41.34    1.25
   2   3 -15   40.32    1.28
   2   3 -14   30.87    1.33
   2   3 -14   31.19    1.31
   2   3 -13   37.58    1.54
   2   3 -12   19.30    1.38
   2   3 -12   17.03    1.19
   2   3 -11   66.83    2.10
   2   3 -11   70.98    2.10
   2   3 -11   67.34    1.96
   2   3 -10    2.68    0.87
   2   3 -10    2.18    1.15
   2   3 -10    2.27    1.31
   2   3 -10    1.49    0.81
   2   3  -9  103.98    2.44
   2   3  -9   97.60    2.36
   2   3  -9   98.73    2.31
   2   3  -8  134.11    2.81
   2   3  -8  134.43    2.73
   2   3  -8  140.81    4.33
   2   3  -8  131.87    2.71
   2   3  -7   45.37    1.41
   2   3  -7   44.02    1.43
   2   3  -7   44.81    1.36
   2   3  -7   45.76    1.36
   2   3  -7   44.24    1.13
   2   3  -7   47.35    2.38
   2   3  -6  513.23    7.40
   2   3  -6  487.51    9.23
   2   3  -5   18.33    1.05
   2   3  -5   22.12    0.74
   2   3  -4  155.61    3.41
   2   3  -4  165.38    2.66
   2   3  -4  158.77    3.79
   2   3  -3  188.54    3.87
   2   3  -3  200.92    4.13
   2   3  -2   32.62    1.46
   2   3  -1   13.45    0.99
   2   3   0   70.34    1.80
   2   3   1  495.67    7.45
   2   3   2   76.14    2.04
   2   3   3  468.82    7.44
   2   3   4  267.40    4.82
   2   3   5 1534.97   21.21
   2   3   5 1453.72   20.13
   2   3   6  563.35    9.01
   2   3   6  564.96    8.11
   2   3   7  171.04    3.63
   2   3   7  189.77    3.11
   2   3   8  288.24    4.60
   2   3   9   11.66    0.83
   2   3   9   12.75    0.91
   2   3   9   10.58    0.78
   2   3  10  395.42    5.82
   2   3  10  401.36    6.06
   2   3  10  399.01    6.12
   2   3  10  406.01    6.09
   2   3  10  386.24    6.14
   2   3  11   43.01    1.24
   2   3  11   41.30    1.31
   2   3  11   44.14    1.49
   2   3  11   43.11    1.45
   2   3  11   45.27    1.56
   2   3  12   75.25    1.93
   2   3  12   87.18    1.91
   2   3  12   89.67    2.24
   2   3  12   94.27    2.34
   2   3  12   81.78    2.13
   2   3  13    3.29    0.78
   2   3  13    3.05    0.63
   2   3  13    2.53    0.81
   2   3  13    3.58    0.99
   2   3  14   63.06    2.01
   2   3  14   59.11    1.74
   2   3  15    5.46    0.95
   2   3  15    5.04    0.89
   2   3  16  194.97    3.78
   2   3  16  236.08    4.06
   2   3  17    4.08    0.66
   2   3  18   70.88    1.65
   2   4 -16    1.45    0.43
   2   4 -16    1.70    0.38
   2   4 -15   20.04    0.93
   2   4 -14    0.61    0.81
   2   4 -14    0.40    0.88
   2   4 -14    0.61    0.85
   2   4 -12  164.59    3.33
   2   4 -12  161.31    3.29
   2   4 -11   83.27    3.73
   2   4 -11   87.05    2.33
   2   4 -11   87.39    2.34
   2   4 -10   69.05    2.04
   2   4 -10   67.80    2.05
   2   4  -9   24.38    1.27
   2   4  -9   27.46    1.43
   2   4  -9   23.77    1.19
   2   4  -8  382.63    6.08
   2   4  -8  360.41    5.88
   2   4  -8  361.97    8.06
   2   4  -8  365.07    5.93
   2   4  -7  647.89    9.56
   2   4  -7  630.80    9.37
   2   4  -7  638.52    9.44
   2   4  -7  633.27    9.18
   2   4  -7  642.55   11.58
   2   4  -6   76.83    1.61
   2   4  -6   81.91    1.86
   2   4  -5 1107.22   15.26
   2   4  -5 1061.22   17.01
   2   4  -4  554.04    9.03
   2   4  -3   63.56    2.16
   2   4  -2  834.17   12.66
   2   4  -1   83.14    2.17
   2   4   0  268.13    4.60
   2   4   1   74.58    1.78
   2   4   1   75.56    2.15
   2   4   2  350.97    6.06
   2   4   3   55.84    1.88
   2   4   4  543.32    8.83
   2   4   5 1136.38   15.71
   2   4   6  308.21    4.72
   2   4   7  498.35    7.25
   2   4   7  470.08    8.15
   2   4   8  140.90    2.63
   2   4   9   35.24    1.21
   2   4   9   34.27    1.22
   2   4   9   31.84    1.16
   2   4  10   21.36    0.98
   2   4  10   24.82    0.90
   2   4  10   22.72    1.07
   2   4  10   22.78    1.15
   2   4  10   20.52    1.05
   2   4  10   20.98    0.95
   2   4  10   20.40    0.89
   2   4  11   91.47    2.09
   2   4  11   99.45    1.99
   2   4  11  100.22    2.33
   2   4  11   94.72    2.18
   2   4  11   94.29    2.26
   2   4  11   86.73    1.98
   2   4  11   90.15    2.12
   2   4  12  155.19    2.80
   2   4  12  139.64    2.83
   2   4  12  148.40    3.13
   2   4  12  147.87    3.01
   2   4  12  143.34    3.06
   2   4  12  159.54    3.22
   2   4  13  173.90    3.43
   2   4  13  203.33    3.50
   2   4  13  216.75    3.96
   2   4  13  185.76    3.66
   2   4  14   69.78    2.13
   2   4  14   64.08    1.84
   2   4  15  449.94    6.92
   2   4  15  383.51    6.69
   2   4  16    3.93    0.78
   2   4  17  119.37    2.35
   2   5 -16   33.04    0.73
   2   5 -15    2.10    0.52
   2   5 -15    1.55    0.65
   2   5 -14   52.72    1.50
   2   5 -14   52.25    1.43
   2   5 -13    4.62    0.98
   2   5 -13    4.29    0.97
   2   5 -13    5.16    1.01
   2   5 -12   66.61    1.94
   2   5 -12   65.71    1.93
   2   5 -12   67.47    1.99
   2   5 -11  142.16    4.91
   2   5 -11  150.70    3.14
   2   5 -11  150.96    3.18
   2   5 -10   92.30    3.93
   2   5 -10   89.60    2.34
   2   5 -10   91.34    2.39
   2   5  -9  169.13    5.28
   2   5  -9  165.40    3.32
   2   5  -9  166.07    3.35
   2   5  -8   19.12    0.77
   2   5  -8   19.93    1.97
   2   5  -8   18.81    1.23
   2   5  -8   18.83    1.27
   2   5  -7   25.42    0.91
   2   5  -7   27.95    2.11
   2   5  -7   29.88    1.32
   2   5  -7   30.83    1.35
   2   5  -6  354.18    5.36
   2   5  -6  342.19    7.30
   2   5  -6  349.67    5.50
   2   5  -6  346.00    5.51
   2   5  -5  842.95   14.02
   2   5  -5  865.41   12.14
   2   5  -3 1845.59   24.95
   2   5  -3 1674.63   23.11
   2   5  -2   19.59    1.36
   2   5  -2   17.73    0.75
   2   5  -1  245.87    4.64
   2   5  -1  242.72    3.71
   2   5   0   27.60    1.23
   2   5   0   26.56    0.77
   2   5   0   26.86    0.86
   2   5   1  183.92    3.36
   2   5   1  183.51    2.90
   2   5   1  179.56    2.90
   2   5   2   37.69    1.11
   2   5   2   36.28    0.98
   2   5   3  701.12   10.92
   2   5   3  677.81    9.55
   2   5   4    0.38    0.55
   2   5   4    0.65    0.89
   2   5   5  569.73    8.10
   2   5   5  586.32    9.71
   2   5   7    7.18    0.73
   2   5   7    7.15    0.63
   2   5   8   23.26    0.97
   2   5   9  363.70    5.68
   2   5   9  350.46    5.50
   2   5   9  345.40    5.69
   2   5  10  254.77    4.00
   2   5  10  264.72    4.35
   2   5  10  255.18    4.29
   2   5  10  242.52    4.33
   2   5  10  237.72    4.00
   2   5  10  236.71    4.19
   2   5  11   32.81    1.18
   2   5  11   38.03    1.15
   2   5  11   38.56    1.49
   2   5  11   34.67    1.33
   2   5  11   37.84    1.41
   2   5  11   31.30    1.12
   2   5  11   36.57    1.29
   2   5  12  143.46    2.66
   2   5  12  144.61    3.04
   2   5  12  141.40    2.89
   2   5  13    1.96    0.73
   2   5  13    1.66    0.55
   2   5  13    1.61    1.06
   2   5  13    2.26    0.82
   2   5  13    1.84    0.77
   2   5  14   54.91    1.69
   2   5  14   59.44    1.97
   2   5  15  134.73    2.96
   2   5  16   77.63    1.96
   2   5  17    1.09    0.55
   2   6 -15   71.30    1.41
   2   6 -15   71.08    1.46
   2   6 -15   66.87    1.39
   2   6 -14    0.42    0.60
   2   6 -14   -0.06    0.77
   2   6 -14    0.26    0.75
   2   6 -13   65.79    1.75
   2   6 -13   67.44    1.81
   2   6 -11  143.79    3.02
   2   6 -11  140.48    3.02
   2   6 -11  138.06    2.96
   2   6 -11  136.24    4.81
   2   6 -10   58.10    1.94
   2   6 -10   54.52    1.83
   2   6 -10   58.46    1.95
   2   6 -10   54.32    3.12
   2   6  -9   62.55    1.93
   2   6  -9   64.24    2.02
   2   6  -9   69.00    3.40
   2   6  -8  102.42    2.42
   2   6  -8  104.91    2.49
   2   6  -8  105.38    4.07
   2   6  -7   92.20    2.20
   2   6  -7   91.11    2.26
   2   6  -7   95.95    1.94
   2   6  -7   95.72    3.71
   2   6  -6  197.98    3.51
   2   6  -6  198.75    3.55
   2   6  -6  188.33    5.13
   2   6  -6  194.60    3.32
   2   6  -5  251.96    4.16
   2   6  -5  249.39    4.19
   2   6  -5  250.55    4.18
   2   6  -5  260.57    5.85
   2   6  -4  856.35   13.97
   2   6  -2  628.68    9.11
   2   6  -2  726.63   11.00
   2   6  -1   27.25    0.92
   2   6  -1   31.65    1.72
   2   6   0  195.10    3.16
   2   6   0  192.51    4.00
   2   6   0  193.17    3.09
   2   6   1  182.37    2.99
   2   6   1  185.88    4.19
   2   6   1  174.13    3.42
   2   6   1  180.12    2.92
   2   6   2  603.22    9.81
   2   6   2  608.68    8.39
   2   6   3  333.12    5.07
   2   6   3  353.75    6.54
   2   6   4  545.77    7.92
   2   6   4  578.95    9.64
   2   6   5   39.66    2.00
   2   6   5   38.13    1.08
   2   6   8  247.68    3.96
   2   6   8  239.16    4.06
   2   6   9   33.75    1.26
   2   6   9   33.21    1.13
   2   6   9   30.85    1.13
   2   6   9   32.86    1.28
   2   6  10   66.20    1.51
   2   6  10   63.37    1.79
   2   6  10   63.85    1.80
   2   6  10   61.45    1.71
   2   6  11  159.96    2.80
   2   6  11  147.79    2.92
   2   6  11  155.48    3.07
   2   6  11  173.23    3.23
   2   6  11  166.32    3.24
   2   6  11  135.11    2.75
   2   6  11  153.15    3.05
   2   6  12  207.95    3.96
   2   6  12  235.65    4.23
   2   6  12  226.92    3.76
   2   6  12  206.26    3.98
   2   6  13   81.33    2.23
   2   6  13   78.31    1.85
   2   6  14  114.50    2.66
   2   6  14   89.88    2.25
   2   6  16   10.55    0.88
   2   6  17   25.87    0.98
   2   7 -15    0.46    0.31
   2   7 -14   91.80    1.85
   2   7 -14   95.65    1.87
   2   7 -14   95.86    1.84
   2   7 -13   16.50    0.91
   2   7 -13   15.49    1.04
   2   7 -13   17.04    1.07
   2   7 -12   59.71    1.76
   2   7 -12   58.78    1.76
   2   7 -11   14.53    1.24
   2   7 -11   13.02    1.20
   2   7 -10   24.55    1.48
   2   7 -10   24.61    1.45
   2   7 -10   23.85    1.33
   2   7 -10   23.69    2.26
   2   7  -9    5.23    1.27
   2   7  -9    4.56    1.20
   2   7  -9    3.68    1.08
   2   7  -9    2.77    1.47
   2   7  -8   75.99    2.17
   2   7  -8   73.56    2.05
   2   7  -8   75.69    2.13
   2   7  -8   74.20    3.53
   2   7  -7    4.86    1.17
   2   7  -7    4.37    1.01
   2   7  -7    4.81    1.12
   2   7  -7    5.39    1.51
   2   7  -7    3.48    0.49
   2   7  -6  252.49    4.39
   2   7  -6  261.18    4.47
   2   7  -6  256.65    4.45
   2   7  -6  261.74    6.40
   2   7  -6  266.21    4.25
   2   7  -5  395.41    6.22
   2   7  -5  407.10    6.28
   2   7  -5  406.36    6.27
   2   7  -4   17.00    1.14
   2   7  -4   16.85    1.11
   2   7  -4   20.21    1.71
   2   7  -3    5.06    0.64
   2   7  -3    5.24    1.19
   2   7  -2   74.58    1.62
   2   7  -1  406.73    6.18
   2   7  -1  471.86    8.58
   2   7   0   11.83    0.81
   2   7   0   12.39    1.34
   2   7   0   11.10    0.62
   2   7   1  258.40    4.93
   2   7   1  266.75    4.20
   2   7   2   87.48    2.07
   2   7   2   90.11    1.82
   2   7   3   10.85    0.94
   2   7   4  132.66    2.46
   2   7   5  650.58    9.34
   2   7   6    4.75    1.14
   2   7   6    3.43    0.66
   2   7   7  404.54    6.16
   2   7   7  389.25    8.15
   2   7   8   12.13    0.75
   2   7   8   11.41    0.79
   2   7   8   12.69    0.90
   2   7   8   12.28    0.95
   2   7   9  441.76    6.36
   2   7   9  426.90    6.35
   2   7  10    1.69    0.85
   2   7  10    1.26    0.76
   2   7  10    1.66    0.54
   2   7  10    1.92    0.66
   2   7  10    0.99    0.49
   2   7  11  474.01    7.44
   2   7  11  474.67    7.07
   2   7  12  156.17    3.21
   2   7  12  144.15    2.99
   2   7  12  153.69    2.78
   2   7  12  138.81    3.01
   2   7  13   76.43    3.65
   2   7  13   76.91    2.07
   2   7  13   88.54    2.34
   2   7  13   84.32    1.95
   2   7  14   67.66    1.91
   2   7  14   85.10    2.24
   2   7  16   34.10    1.27
   2   7  17   10.71    0.70
   2   8 -14    5.71    0.54
   2   8 -14    5.65    0.49
   2   8 -13   34.02    1.09
   2   8 -13   35.04    1.19
   2   8 -13   34.55    1.20
   2   8 -12    2.42    0.68
   2   8 -12    1.82    0.91
   2   8 -12    1.63    0.94
   2   8 -11   64.92    1.80
   2   8 -10    2.35    0.84
   2   8 -10    1.62    1.29
   2   8 -10    2.02    1.13
   2   8 -10    2.12    1.06
   2   8  -9   38.92    1.52
   2   8  -9   38.28    2.73
   2   8  -9   38.56    1.69
   2   8  -9   38.17    1.66
   2   8  -8   88.93    3.91
   2   8  -8   91.28    2.41
   2   8  -8   91.32    2.39
   2   8  -7  125.02    4.49
   2   8  -7  120.75    2.76
   2   8  -7  117.80    2.71
   2   8  -6   51.08    2.79
   2   8  -6   51.59    1.38
   2   8  -6   55.70    1.81
   2   8  -6   56.73    1.79
   2   8  -5   36.29    1.34
   2   8  -5   36.92    2.33
   2   8  -5   36.20    1.51
   2   8  -5   36.55    1.45
   2   8  -4   78.56    1.94
   2   8  -4   79.85    2.01
   2   8  -4   79.92    2.00
   2   8  -4   77.73    3.13
   2   8  -3  138.70    2.68
   2   8  -3  139.41    2.72
   2   8  -3  139.93    2.70
   2   8  -3  131.36    2.51
   2   8  -3  137.41    4.15
   2   8  -2  379.66    5.88
   2   8  -2  382.24    5.88
   2   8  -2  375.85    7.93
   2   8  -2  380.78    5.82
   2   8  -1   67.00    1.65
   2   8   0  164.01    2.81
   2   8   0  157.56    2.95
   2   8   1   76.75    2.35
   2   8   1   80.72    1.69
   2   8   2  428.09    6.88
   2   8   2  448.96    8.73
   2   8   3    2.33    1.05
   2   8   3    1.62    1.07
   2   8   4   90.88    2.06
   2   8   4  100.89    3.37
   2   8   5   62.12    1.58
   2   8   5   67.33    2.82
   2   8   6  533.09    7.67
   2   8   6  499.75    7.51
   2   8   6  500.28    7.57
   2   8   6  528.80    9.99
   2   8   7    0.85    0.61
   2   8   7    0.95    0.70
   2   8   7    0.72    0.65
   2   8   7    2.97    1.23
   2   8   7    0.86    0.64
   2   8   7    0.50    0.87
   2   8   8  333.71    5.31
   2   8   8  320.91    5.16
   2   8   8  319.11    7.52
   2   8   8  326.08    5.13
   2   8   8  334.44    5.38
   2   8   9   51.89    2.84
   2   8   9   48.96    1.22
   2   8   9   48.34    1.42
   2   8   9   52.84    1.60
   2   8   9   50.93    1.70
   2   8  10   32.39    2.40
   2   8  10   31.43    1.01
   2   8  10   30.87    1.26
   2   8  10   28.06    1.30
   2   8  10   32.91    1.39
   2   8  10   33.48    1.51
   2   8  11    2.96    0.75
   2   8  11    2.70    0.59
   2   8  11    2.82    0.95
   2   8  11    2.09    0.83
   2   8  11    4.26    1.45
   2   8  12   30.49    1.31
   2   8  12   33.48    1.13
   2   8  12   31.23    2.45
   2   8  12   30.48    1.32
   2   8  12   33.71    1.50
   2   8  13    3.74    0.76
   2   8  13    4.12    1.34
   2   8  13    5.28    1.04
   2   8  13    4.38    0.81
   2   8  14  102.17    2.51
   2   8  16   50.61    1.47
   2   8  17   23.18    0.84
   2   9 -14   29.35    0.68
   2   9 -13    0.56    0.46
   2   9 -12   47.16    1.32
   2   9 -12   46.60    1.40
   2   9 -12   50.03    1.47
   2   9 -11   23.80    1.09
   2   9 -11   24.81    1.24
   2   9 -11   23.96    1.28
   2   9 -10   26.52    1.20
   2   9  -9   30.22    1.33
   2   9  -9   26.53    2.33
   2   9  -9   31.50    1.55
   2   9  -9   30.10    1.47
   2   9  -8   19.72    1.21
   2   9  -8   20.35    2.15
   2   9  -8   20.60    1.45
   2   9  -8   19.17    1.38
   2   9  -7    3.53    0.90
   2   9  -7    2.61    1.38
   2   9  -7    5.08    1.17
   2   9  -7    4.95    1.28
   2   9  -6   77.93    2.06
   2   9  -6   72.14    1.72
   2   9  -6   75.93    3.46
   2   9  -6   77.25    2.15
   2   9  -6   79.53    2.17
   2   9  -5  100.97    2.37
   2   9  -5   96.88    3.80
   2   9  -5  101.43    2.44
   2   9  -5  103.51    2.43
   2   9  -4   34.47    1.33
   2   9  -4   35.62    1.52
   2   9  -4   35.86    1.46
   2   9  -4   36.27    2.32
   2   9  -3   35.40    1.27
   2   9  -3   31.11    2.11
   2   9  -3   33.64    1.42
   2   9  -3   34.24    1.39
   2   9  -2   49.81    1.45
   2   9  -2   50.26    2.53
   2   9  -2   50.70    1.59
   2   9  -2   46.98    1.40
   2   9  -1   27.86    1.08
   2   9  -1   23.49    1.11
   2   9  -1   28.49    2.01
   2   9   0  231.50    4.07
   2   9   0  239.64    3.86
   2   9   1  346.74    5.61
   2   9   1  329.58    5.20
   2   9   2   28.28    1.97
   2   9   2   28.21    1.00
   2   9   3  148.00    2.79
   2   9   3  156.38    3.15
   2   9   3  152.32    4.44
   2   9   3  145.22    2.75
   2   9   4   26.49    1.21
   2   9   4   28.31    2.03
   2   9   4   28.09    1.26
   2   9   5  176.39    3.15
   2   9   5  178.99    3.16
   2   9   5  173.48    3.10
   2   9   5  175.84    5.01
   2   9   6   56.29    1.57
   2   9   6   60.01    1.68
   2   9   6   59.38    1.66
   2   9   6   58.76    1.55
   2   9   6   57.84    1.57
   2   9   6   63.33    2.99
   2   9   7  481.80    7.61
   2   9   7  518.33    7.69
   2   9   7  507.47    7.55
   2   9   7  512.02   10.31
   2   9   7  489.87    7.49
   2   9   7  503.54    7.59
   2   9   8   11.39    1.13
   2   9   8   11.26    1.69
   2   9   8   11.83    0.88
   2   9   8   10.96    0.83
   2   9   8   10.97    0.95
   2   9   9  179.98    3.46
   2   9   9  165.94    3.11
   2   9   9  174.66    3.35
   2   9   9  174.12    5.49
   2   9  10   59.76    1.80
   2   9  10   68.44    2.01
   2   9  10   63.86    3.34
   2   9  10   62.69    1.88
   2   9  11   81.73    2.14
   2   9  11   83.56    3.87
   2   9  11   82.18    2.13
   2   9  11   88.22    2.26
   2   9  12   70.57    1.97
   2   9  12   71.18    3.58
   2   9  12   73.79    2.09
   2   9  12   68.72    1.90
   2   9  13   56.29    1.72
   2   9  13   60.60    3.25
   2   9  13   56.52    1.65
   2   9  13   63.15    1.91
   2   9  14   66.93    1.78
   2   9  16   16.93    0.89
   2   9  17    7.28    0.52
   2   9  17    6.77    0.51
   2  10 -13   31.32    0.78
   2  10 -12    0.74    0.52
   2  10 -11   47.44    1.35
   2  10 -11   47.62    1.50
   2  10 -10    2.12    1.00
   2  10 -10    2.09    0.92
   2  10  -9   85.58    2.08
   2  10  -9   80.93    2.12
   2  10  -9   84.78    2.19
   2  10  -8   40.52    1.50
   2  10  -8   36.57    2.62
   2  10  -8   41.16    1.60
   2  10  -8   42.16    1.69
   2  10  -7  142.80    3.03
   2  10  -7  141.55    4.94
   2  10  -7  140.63    3.04
   2  10  -7  145.76    3.11
   2  10  -6    1.36    0.85
   2  10  -6    1.56    1.30
   2  10  -6    1.84    1.18
   2  10  -6    1.97    1.09
   2  10  -5   16.48    1.10
   2  10  -5   14.66    1.76
   2  10  -5   16.46    1.29
   2  10  -5   17.09    1.38
   2  10  -4    2.44    0.83
   2  10  -4    2.35    1.16
   2  10  -4    2.62    1.25
   2  10  -3   59.38    1.72
   2  10  -3   56.07    2.76
   2  10  -3   59.58    1.85
   2  10  -3   60.15    1.64
   2  10  -2  158.17    3.06
   2  10  -2  154.28    2.99
   2  10  -2  154.61    4.52
   2  10  -1   17.63    1.00
   2  10  -1   18.86    1.09
   2  10  -1   20.75    1.69
   2  10   0  132.29    2.78
   2  10   0  136.56    2.70
   2  10   1   46.14    1.42
   2  10   1   45.41    1.27
   2  10   1   45.59    1.62
   2  10   2  208.99    5.61
   2  10   2  222.76    4.03
   2  10   2  218.38    3.79
   2  10   2  211.65    3.72
   2  10   2  202.89    3.61
   2  10   2  207.80    3.70
   2  10   3   58.01    1.82
   2  10   3   56.24    2.85
   2  10   3   55.33    1.58
   2  10   3   54.12    1.55
   2  10   3   56.48    1.50
   2  10   3   53.99    1.67
   2  10   4  453.76    7.00
   2  10   4  444.64    6.92
   2  10   4  442.90    6.91
   2  10   4  440.16    6.88
   2  10   4  440.80    6.79
   2  10   5   11.09    0.89
   2  10   5   11.99    0.89
   2  10   5   10.69    1.16
   2  10   5    9.36    0.97
   2  10   5   10.24    1.65
   2  10   6  482.23    7.48
   2  10   6  495.85    7.48
   2  10   6  472.06    7.28
   2  10   6  471.42    7.31
   2  10   6  490.82    7.43
   2  10   6  499.68   10.22
   2  10   7   26.92    1.21
   2  10   7   28.33    1.36
   2  10   7   28.23    2.32
   2  10   7   29.74    1.23
   2  10   7   25.63    1.10
   2  10   7   26.96    1.20
   2  10   8  207.93    3.81
   2  10   8  203.98    6.04
   2  10   8  206.98    3.63
   2  10   8  204.97    3.71
   2  10   9    4.31    1.13
   2  10   9    5.01    1.56
   2  10   9    4.67    0.92
   2  10   9    3.73    0.72
   2  10  10   93.81    2.41
   2  10  10   87.74    3.99
   2  10  10   85.62    2.24
   2  10  11  151.32    3.16
   2  10  11  150.81    5.28
   2  10  11  142.20    3.05
   2  10  12  144.78    3.04
   2  10  12  146.50    5.14
   2  10  12  141.37    2.93
   2  10  12  150.55    3.10
   2  10  13    0.86    0.67
   2  10  13    1.31    0.88
   2  10  14   80.72    2.01
   2  10  14   66.66    1.75
   2  10  16   12.05    0.74
   2  11 -12   55.66    1.17
   2  11 -11    0.23    0.52
   2  11 -10   61.12    1.56
   2  11  -9    0.40    0.97
   2  11  -8   81.75    2.03
   2  11  -8   82.52    2.16
   2  11  -7    1.50    0.83
   2  11  -7    1.62    1.28
   2  11  -7    0.01    1.13
   2  11  -6  189.40    3.65
   2  11  -6  180.60    5.60
   2  11  -6  189.30    3.69
   2  11  -5    0.37    0.83
   2  11  -5   -0.21    1.14
   2  11  -5    0.38    1.16
   2  11  -4  114.17    2.60
   2  11  -4  114.37    2.68
   2  11  -4  113.71    4.10
   2  11  -3   82.55    2.06
   2  11  -3   84.13    3.40
   2  11  -2  124.89    2.66
   2  11  -2  116.78    2.57
   2  11  -2  117.42    3.88
   2  11  -1  178.58    3.35
   2  11  -1  164.04    3.28
   2  11   0   44.28    1.51
   2  11   0   46.57    1.61
   2  11   1  214.10    3.87
   2  11   1  216.04    3.92
   2  11   1  206.28    3.63
   2  11   1  214.29    3.94
   2  11   2   26.17    1.37
   2  11   2   26.33    1.23
   2  11   2   26.40    1.19
   2  11   2   24.99    0.99
   2  11   2   26.74    1.42
   2  11   3  248.67    4.37
   2  11   3  248.07    6.50
   2  11   3  243.46    4.29
   2  11   3  243.27    4.27
   2  11   3  233.76    4.12
   2  11   3  237.84    4.16
   2  11   4   19.15    1.21
   2  11   4   19.72    2.04
   2  11   4   15.79    1.06
   2  11   4   16.96    1.07
   2  11   4   19.57    0.97
   2  11   4   17.30    1.30
   2  11   5  487.03    7.47
   2  11   5  484.93   10.25
   2  11   5  468.33    7.46
   2  11   5  479.26    7.49
   2  11   5  469.08    7.26
   2  11   5  476.19    7.42
   2  11   6   20.73    1.15
   2  11   6   20.73    1.25
   2  11   6   18.82    1.29
   2  11   6   18.24    1.00
   2  11   6   17.76    1.12
   2  11   6   17.86    2.00
   2  11   7  121.03    2.71
   2  11   7  125.49    2.75
   2  11   7  125.88    2.62
   2  11   7  123.87    4.65
   2  11   7  120.60    2.57
   2  11   8   29.02    1.46
   2  11   8   28.67    1.26
   2  11   8   27.97    2.44
   2  11   8   24.46    1.06
   2  11   8   26.50    1.27
   2  11   9  295.56    7.84
   2  11   9  292.10    5.10
   2  11  10   13.38    1.27
   2  11  10   11.20    1.85
   2  11  10   11.00    1.06
   2  11  11  267.49    4.71
   2  11  11  273.01    7.29
   2  11  11  268.37    4.65
   2  11  12    5.18    0.81
   2  11  12    5.59    0.95
   2  11  13   64.52    1.83
   2  11  14    7.18    0.89
   2  11  16   18.96    0.75
   2  12 -11   34.18    0.90
   2  12 -10    0.45    0.53
   2  12  -9   46.59    1.34
   2  12  -7  179.57    3.40
   2  12  -6    2.46    0.82
   2  12  -5  126.15    2.75
   2  12  -5  116.20    4.32
   2  12  -4   46.75    1.61
   2  12  -4   39.60    2.55
   2  12  -3   78.69    2.09
   2  12  -3   71.28    3.19
   2  12  -2   71.96    2.01
   2  12  -1  574.36    8.93
   2  12  -1  598.18    9.04
   2  12   0    7.98    1.05
   2  12   0    9.11    1.04
   2  12   0    8.62    1.00
   2  12   1   38.42    1.47
   2  12   1   38.14    1.52
   2  12   1   37.91    1.65
   2  12   1   38.73    1.54
   2  12   2  169.51    3.37
   2  12   2  161.14    3.32
   2  12   2  163.80    3.29
   2  12   2  158.01    3.05
   2  12   2  166.76    3.25
   2  12   3    2.33    1.00
   2  12   3    1.66    0.84
   2  12   3    1.21    0.84
   2  12   3    2.11    0.58
   2  12   3    1.91    1.16
   2  12   4  127.76    2.76
   2  12   4  125.28    4.62
   2  12   4  119.74    2.73
   2  12   4  123.04    2.74
   2  12   4  118.94    2.62
   2  12   4  117.09    2.55
   2  12   5   15.54    1.10
   2  12   5   15.45    1.28
   2  12   5   16.26    1.18
   2  12   5   15.79    2.00
   2  12   5   15.64    0.94
   2  12   6   11.41    1.06
   2  12   6   11.10    1.13
   2  12   6   10.47    1.17
   2  12   6   10.58    1.80
   2  12   7    9.65    1.03
   2  12   7   11.09    1.18
   2  12   7    9.75    1.80
   2  12   7    9.37    0.94
   2  12   8  138.67    3.00
   2  12   8  142.03    2.85
   2  12   8  131.01    4.95
   2  12   8  126.19    2.76
   2  12   9    3.86    1.11
   2  12   9    4.37    1.51
   2  12   9    4.28    0.80
   2  12   9    4.31    0.89
   2  12  10   81.59    3.83
   2  12  10   76.24    2.04
   2  12  11   12.45    1.03
   2  12  11   13.16    1.01
   2  12  12  139.87    2.83
   2  12  13    2.45    0.78
   2  12  13    2.67    0.65
   2  12  15    4.19    0.52
   2  13 -11    1.76    0.25
   2  13 -10   40.32    1.00
   2  13 -10   42.45    1.00
   2  13  -9    2.43    0.56
   2  13  -8   35.44    1.16
   2  13  -7    0.60    0.66
   2  13  -6  134.01    2.74
   2  13  -5   33.78    1.36
   2  13  -4   41.40    1.52
   2  13  -3    0.94    0.76
   2  13  -3    0.63    0.83
   2  13  -2   74.54    2.01
   2  13  -2   81.03    2.14
   2  13  -1    2.51    0.90
   2  13  -1    2.38    0.93
   2  13  -1    2.70    0.92
   2  13   0  223.42    4.19
   2  13   0  224.04    4.23
   2  13   0  219.88    4.11
   2  13   0  225.11    4.09
   2  13   1   11.48    1.09
   2  13   1   11.23    1.31
   2  13   1   12.07    1.12
   2  13   2   65.41    1.95
   2  13   2   66.71    1.97
   2  13   2   64.12    1.95
   2  13   3   65.31    1.97
   2  13   3   60.56    1.91
   2  13   3   65.78    1.97
   2  13   4   12.59    1.10
   2  13   4   12.57    1.10
   2  13   4   11.19    1.23
   2  13   5   17.32    1.20
   2  13   5   17.17    1.26
   2  13   5   17.17    2.06
   2  13   5   17.47    1.19
   2  13   5   15.93    0.94
   2  13   6   11.12    1.07
   2  13   6   11.94    1.08
   2  13   6   13.18    1.89
   2  13   6   11.06    0.86
   2  13   6   11.63    1.16
   2  13   7    7.38    0.94
   2  13   7    7.05    1.68
   2  13   7    6.79    0.79
   2  13   7    7.76    1.13
   2  13   8   50.66    3.08
   2  13   8   55.44    1.69
   2  13   8   47.97    1.59
   2  13   8   53.13    1.66
   2  13   8   57.96    1.89
   2  13   9   65.08    3.43
   2  13   9   71.89    2.07
   2  13   9   69.97    1.90
   2  13   9   61.48    1.79
   2  13  10   26.57    1.42
   2  13  12   12.72    0.90
   2  13  13  148.18    2.92
   2  13  13  177.43    3.06
   2  13  14    0.63    0.47
   2  13  15   31.13    0.89
   2  14  -9   57.89    1.19
   2  14  -9   56.45    1.22
   2  14  -9   54.73    1.17
   2  14  -8    0.48    0.52
   2  14  -8    0.39    0.51
   2  14  -7   42.82    1.27
   2  14  -7   43.53    1.27
   2  14  -6    2.02    0.69
   2  14  -6    1.67    0.65
   2  14  -4   15.96    1.06
   2  14  -4   16.17    1.03
   2  14  -3   29.19    1.33
   2  14  -3   29.35    1.30
   2  14  -3   28.47    1.17
   2  14  -2   22.06    1.22
   2  14  -2   18.64    1.10
   2  14  -2   21.82    1.24
   2  14  -2   21.53    1.38
   2  14  -1   30.59    1.39
   2  14  -1   29.12    1.34
   2  14  -1   29.43    1.40
   2  14  -1   30.19    1.51
   2  14   0   34.38    1.46
   2  14   0   33.61    1.41
   2  14   0   34.47    1.49
   2  14   0   32.70    1.54
   2  14   1  136.59    2.99
   2  14   1  136.30    2.94
   2  14   1  132.85    2.98
   2  14   1  130.72    2.82
   2  14   2   97.39    2.46
   2  14   2   92.66    2.41
   2  14   2   91.22    2.30
   2  14   3  144.55    3.15
   2  14   3  142.42    3.12
   2  14   3  137.34    2.90
   2  14   4   85.01    2.01
   2  14   4   92.18    2.39
   2  14   4   92.15    2.35
   2  14   5   57.29    1.86
   2  14   5   56.68    1.82
   2  14   5   53.53    1.55
   2  14   5   58.57    1.83
   2  14   6   11.80    1.06
   2  14   6   12.37    1.10
   2  14   6   11.02    1.16
   2  14   6   11.72    0.82
   2  14   7  278.56    4.69
   2  14   7  250.21    7.06
   2  14   7  269.35    4.72
   2  14   7  256.26    4.55
   2  14   8  124.31    2.62
   2  14   8  126.23    2.76
   2  14   9   24.00    1.08
   2  14  10  106.18    2.34
   2  14  10  111.21    2.51
   2  14  11    0.42    0.55
   2  14  11    0.34    0.65
   2  14  12   68.33    1.60
   2  14  12   59.43    1.58
   2  14  13    0.53    0.43
   2  14  13    0.73    0.50
   2  15  -8   36.28    0.87
   2  15  -8   35.51    0.86
   2  15  -7    4.20    0.54
   2  15  -7    4.65    0.70
   2  15  -7    3.67    0.53
   2  15  -6   39.61    1.16
   2  15  -6   38.96    1.21
   2  15  -6   37.75    1.15
   2  15  -5    0.61    0.64
   2  15  -5    0.68    0.89
   2  15  -5    0.44    0.65
   2  15  -4   32.87    1.23
   2  15  -4   34.31    1.32
   2  15  -4   32.29    1.24
   2  15  -3    0.87    1.00
   2  15  -2   92.28    2.16
   2  15  -2   91.66    2.09
   2  15  -1   24.34    1.21
   2  15  -1   24.37    1.22
   2  15  -1   21.64    1.16
   2  15   0  151.23    3.18
   2  15   0  151.82    3.17
   2  15   0  159.74    3.14
   2  15   1   30.49    1.38
   2  15   1   29.61    1.36
   2  15   1   27.21    1.32
   2  15   2   28.41    1.36
   2  15   2   31.19    1.41
   2  15   2   33.50    1.44
   2  15   3   83.07    2.24
   2  15   3   90.44    2.28
   2  15   4   23.99    1.29
   2  15   4   25.83    1.33
   2  15   4   23.28    1.22
   2  15   5    9.99    1.02
   2  15   5   10.81    1.06
   2  15   5   11.81    1.08
   2  15   6  138.39    2.79
   2  15   6  118.06    2.46
   2  15   7   63.07    1.76
   2  15   7   56.69    1.52
   2  15   8   15.65    1.00
   2  15   8   15.01    0.82
   2  15   8   15.85    1.12
   2  15   9   58.52    1.53
   2  15   9   65.86    1.81
   2  15  10   11.36    0.70
   2  15  10   11.67    0.85
   2  15  11   89.12    1.81
   2  15  11   81.44    1.88
   2  15  12    1.31    0.50
   2  16  -7   11.14    0.45
   2  16  -7   11.46    0.43
   2  16  -6   12.57    0.59
   2  16  -6   11.76    0.59
   2  16  -5    5.05    0.58
   2  16  -5    4.66    0.68
   2  16  -5    5.27    0.58
   2  16  -4    7.53    0.71
   2  16  -4    7.75    0.82
   2  16  -4    7.71    0.71
   2  16  -3   60.20    1.58
   2  16  -3   61.92    1.58
   2  16  -3   60.65    1.46
   2  16  -2   -0.07    0.68
   2  16  -2    0.20    0.58
   2  16  -2   -0.21    0.67
   2  16  -2    0.41    0.82
   2  16  -1   47.49    1.50
   2  16  -1   46.80    1.49
   2  16  -1   45.16    1.39
   2  16   0    1.63    0.78
   2  16   1   66.65    1.82
   2  16   2   31.98    1.34
   2  16   3   45.58    1.57
   2  16   4   40.08    1.35
   2  16   4   42.27    1.50
   2  16   5   42.64    1.43
   2  16   5   49.14    1.55
   2  16   6   28.88    1.23
   2  16   6   30.86    1.27
   2  16   7   13.20    0.94
   2  16   8   85.01    1.74
   2  16   8   93.03    2.06
   2  16   9   29.78    0.89
   2  16   9   28.28    1.11
   2  16  10   53.26    1.40
   2  16  11    2.48    0.49
   2  17  -5    3.93    0.37
   2  17  -4   31.66    0.88
   2  17  -4   31.96    0.89
   2  17  -3   -0.01    0.48
   2  17  -3    0.07    0.49
   2  17  -2   34.12    1.09
   2  17  -2   34.55    1.10
   2  17  -1    0.02    0.61
   2  17  -1   -0.30    0.62
   2  17  -1    0.16    0.54
   2  17   0   53.71    1.47
   2  17   0   49.32    1.35
   2  17   1   36.09    1.25
   2  17   1   33.69    1.19
   2  17   2   49.53    1.50
   2  17   2   54.40    1.50
   2  17   3   12.15    0.90
   2  17   3   12.13    0.92
   2  17   4   46.62    1.41
   2  17   5   34.13    1.21
   2  17   6   84.11    1.88
   2  17   7   37.05    1.17
   2  17   8   12.03    0.75
   2  17   9   33.59    1.01
   2  17  10   11.61    0.57
   2  18  -3   20.36    0.56
   2  18  -2    0.45    0.36
   2  18  -1   50.59    1.18
   2  18   0    2.05    0.50
   2  18   1   46.58    1.21
   2  18   3   68.73    1.52
   2  18   4    6.50    0.66
   2  18   7   28.68    0.87
   2  18   8   26.17    0.75
   2  19   5    8.99    0.39
   3 -17  -2   29.70    0.77
   3 -17  -1   35.85    0.89
   3 -17   0    3.64    0.33
   3 -17   1    3.41    0.34
   3 -17   2    3.47    0.32
   3 -17   2    3.54    0.33
   3 -16  -6   31.74    0.86
   3 -16  -5   33.23    0.77
   3 -16  -4   14.72    0.65
   3 -16  -2   47.84    1.16
   3 -16  -1   11.99    0.67
   3 -16  -1   11.33    0.69
   3 -16   0    9.07    0.63
   3 -16   0    9.17    0.69
   3 -16   1    7.10    0.65
   3 -16   2    2.11    0.55
   3 -16   2    1.68    0.41
   3 -16   3   12.26    0.71
   3 -16   3   10.54    0.56
   3 -16   4   15.25    0.69
   3 -16   4   13.94    0.60
   3 -16   5   16.53    0.63
   3 -16   5   15.43    0.57
   3 -15  -9   25.43    0.73
   3 -15  -8    2.74    0.53
   3 -15  -7   37.30    1.16
   3 -15  -6   12.20    0.84
   3 -15  -6    9.94    0.51
   3 -15  -5   62.77    1.45
   3 -15  -5   65.64    1.64
   3 -15  -4    8.29    0.61
   3 -15  -4    7.23    0.66
   3 -15  -4    7.65    0.79
   3 -15  -3   49.67    1.34
   3 -15  -3   49.40    1.42
   3 -15  -2    6.43    0.70
   3 -15  -2    7.06    0.63
   3 -15  -2    6.51    0.69
   3 -15  -2    8.72    1.03
   3 -15  -1   33.58    1.25
   3 -15  -1   33.39    1.12
   3 -15  -1   30.37    1.17
   3 -15   0   42.12    1.28
   3 -15   0   48.36    1.43
   3 -15   1   12.21    1.04
   3 -15   1   11.06    0.77
   3 -15   1    9.85    0.66
   3 -15   1   12.72    0.88
   3 -15   1   10.51    0.78
   3 -15   2  123.10    2.36
   3 -15   2  117.95    2.39
   3 -15   2  112.85    2.33
   3 -15   2  103.21    2.28
   3 -15   2   99.36    2.17
   3 -15   3    2.76    0.68
   3 -15   3    1.99    0.56
   3 -15   3    1.39    0.58
   3 -15   3    1.67    0.51
   3 -15   4   47.97    1.33
   3 -15   4   48.96    1.40
   3 -15   4   50.94    1.30
   3 -15   5   54.20    1.40
   3 -15   5   51.48    1.33
   3 -15   5   45.84    1.06
   3 -15   5   61.08    1.43
   3 -15   5   59.11    1.32
   3 -15   6   30.75    0.96
   3 -15   6   27.82    0.89
   3 -15   6   32.64    0.95
   3 -15   6   31.49    0.88
   3 -15   6   27.36    0.92
   3 -15   7    0.62    0.38
   3 -15   7    0.28    0.32
   3 -15   7    0.44    0.37
   3 -15   7    0.26    0.34
   3 -15   8   11.77    0.46
   3 -15   8   10.22    0.42
   3 -14 -10   45.47    1.07
   3 -14  -9    4.30    0.64
   3 -14  -8   60.99    1.63
   3 -14  -8   59.39    1.39
   3 -14  -7    3.39    0.81
   3 -14  -7    2.41    0.50
   3 -14  -6   54.80    1.45
   3 -14  -6   51.46    1.35
   3 -14  -5    1.97    0.56
   3 -14  -5    1.94    0.85
   3 -14  -4   76.32    2.08
   3 -14  -4   77.43    1.89
   3 -14  -3   17.05    1.24
   3 -14  -3   15.11    1.10
   3 -14  -3   13.50    0.90
   3 -14  -3   16.14    0.91
   3 -14  -2   66.90    1.89
   3 -14  -2   66.19    1.78
   3 -14  -2   68.13    1.90
   3 -14  -1    9.25    0.78
   3 -14  -1    8.85    0.87
   3 -14  -1    9.93    0.90
   3 -14  -1    8.27    0.87
   3 -14  -1    7.08    0.74
   3 -14   0   40.23    1.45
   3 -14   0   41.66    1.38
   3 -14   0   40.35    1.41
   3 -14   0   36.95    1.30
   3 -14   0   41.79    1.49
   3 -14   0   37.84    1.45
   3 -14   1  108.56    2.35
   3 -14   1  104.39    2.42
   3 -14   1  109.23    2.50
   3 -14   1   92.80    2.28
   3 -14   1  105.72    2.45
   3 -14   1   96.88    2.37
   3 -14   1  104.27    2.28
   3 -14   2  123.35    2.66
   3 -14   2  131.71    2.72
   3 -14   2  110.78    2.43
   3 -14   2  114.53    2.60
   3 -14   2  114.22    2.65
   3 -14   2  124.92    2.71
   3 -14   2  124.58    2.56
   3 -14   2  123.21    2.69
   3 -14   3   65.81    1.80
   3 -14   3   69.50    1.85
   3 -14   3   64.79    1.85
   3 -14   3   67.21    1.89
   3 -14   3   65.41    1.73
   3 -14   3   61.87    1.84
   3 -14   3   58.63    1.74
   3 -14   3   58.87    1.60
   3 -14   4  119.32    2.49
   3 -14   4  109.15    2.54
   3 -14   4  105.84    2.30
   3 -14   4  109.09    2.48
   3 -14   4  114.60    2.42
   3 -14   4  117.50    2.56
   3 -14   4  116.23    2.53
   3 -14   5  100.20    2.15
   3 -14   5  101.55    2.34
   3 -14   5  102.36    2.38
   3 -14   5  113.15    2.31
   3 -14   5  109.38    2.36
   3 -14   6    3.43    0.52
   3 -14   6    3.33    0.64
   3 -14   6    3.46    0.69
   3 -14   6    2.95    0.61
   3 -14   6    2.94    0.69
   3 -14   7   29.25    0.91
   3 -14   7   31.51    1.12
   3 -14   7   29.10    1.06
   3 -14   7   32.21    1.06
   3 -14   7   32.48    1.03
   3 -14   8    0.69    0.47
   3 -14   8    0.71    0.46
   3 -14   8    0.69    0.47
   3 -14   8    0.74    0.35
   3 -14   8    1.09    0.45
   3 -14   8    0.35    0.24
   3 -14   9   39.55    0.97
   3 -14   9   40.73    0.97
   3 -13 -11   33.96    0.89
   3 -13 -10    9.47    0.72
   3 -13 -10    7.18    0.72
   3 -13  -9   96.79    2.08
   3 -13  -9  105.31    2.32
   3 -13  -8    1.71    0.56
   3 -13  -8    1.59    0.75
   3 -13  -8    1.31    0.86
   3 -13  -7   23.09    1.05
   3 -13  -7   23.66    1.35
   3 -13  -6    1.17    0.84
   3 -13  -6    0.53    0.61
   3 -13  -5  135.91    2.82
   3 -13  -5  126.84    2.74
   3 -13  -4   42.29    1.58
   3 -13  -4   36.45    1.36
   3 -13  -3   26.09    1.44
   3 -13  -3   24.58    1.17
   3 -13  -3   24.89    1.22
   3 -13  -2   39.38    1.44
   3 -13  -2   38.21    1.38
   3 -13  -2   41.43    1.53
   3 -13  -2   41.67    1.68
   3 -13  -1   30.15    1.28
   3 -13  -1   32.14    3.31
   3 -13  -1   33.38    1.63
   3 -13  -1   30.13    1.31
   3 -13  -1   27.80    1.20
   3 -13  -1   31.80    1.39
   3 -13  -1   27.41    1.41
   3 -13  -1   27.47    1.34
   3 -13   0   16.77    1.01
   3 -13   0   15.77    1.07
   3 -13   0   17.46    1.40
   3 -13   0   19.56    2.96
   3 -13   0   16.97    1.02
   3 -13   0   15.93    0.95
   3 -13   0   16.40    1.09
   3 -13   0   17.06    1.17
   3 -13   0   15.38    1.18
   3 -13   0   16.36    0.99
   3 -13   0   15.19    1.10
   3 -13   1  198.42    3.74
   3 -13   1  194.39    3.81
   3 -13   1  198.77    3.85
   3 -13   1  192.43    3.68
   3 -13   1  179.06    3.73
   3 -13   1  184.18    3.83
   3 -13   1  194.58    3.86
   3 -13   1  191.38    3.69
   3 -13   1  194.02    3.82
   3 -13   2   20.87    1.11
   3 -13   2   20.00    1.15
   3 -13   2   20.80    1.39
   3 -13   2   19.59    1.25
   3 -13   2   18.96    1.08
   3 -13   2   19.21    1.34
   3 -13   2   17.86    1.17
   3 -13   2   18.79    1.01
   3 -13   2   17.66    1.11
   3 -13   3  239.84    4.42
   3 -13   3  239.59    4.50
   3 -13   3  242.12    4.47
   3 -13   3  239.61    4.59
   3 -13   3  238.45    4.34
   3 -13   4   54.20    1.71
   3 -13   5   33.16    1.33
   3 -13   5   32.36    1.32
   3 -13   6   39.91    1.44
   3 -13   6   39.88    1.41
   3 -13   6   36.94    1.32
   3 -13   7   12.44    0.90
   3 -13   7   11.43    0.86
   3 -13   7   10.60    0.78
   3 -13   8   37.62    1.23
   3 -13   8   39.10    1.26
   3 -13   8   36.30    1.18
   3 -13   9   27.51    1.06
   3 -13   9   28.11    0.97
   3 -13   9   26.15    0.92
   3 -13  10   42.11    1.03
   3 -13  10   41.95    1.12
   3 -13  10   43.76    1.15
   3 -13  11    2.87    0.30
   3 -13  11    2.78    0.30
   3 -12 -11   41.14    1.19
   3 -12 -11   31.25    1.07
   3 -12 -10   17.46    1.00
   3 -12 -10   15.33    1.01
   3 -12  -9   83.85    2.06
   3 -12  -8   10.41    1.03
   3 -12  -7   24.67    1.31
   3 -12  -6   95.55    2.41
   3 -12  -5    3.90    1.10
   3 -12  -5    3.64    1.00
   3 -12  -4  125.78    5.23
   3 -12  -4  128.04    2.89
   3 -12  -4  129.16    2.85
   3 -12  -3    7.32    1.29
   3 -12  -3    8.62    2.70
   3 -12  -3    8.15    1.08
   3 -12  -3    6.94    0.85
   3 -12  -2   80.50    2.20
   3 -12  -2   91.76    4.78
   3 -12  -2   90.91    2.51
   3 -12  -2   79.73    2.10
   3 -12  -2   82.25    2.19
   3 -12  -2   83.95    2.14
   3 -12  -2   86.84    2.30
   3 -12  -2   89.01    2.52
   3 -12  -2   77.22    2.15
   3 -12  -1   24.74    1.23
   3 -12  -1   21.59    2.45
   3 -12  -1   27.13    1.72
   3 -12  -1   28.44    3.49
   3 -12  -1   24.16    1.19
   3 -12  -1   24.01    1.21
   3 -12  -1   25.28    1.29
   3 -12  -1   26.87    1.39
   3 -12  -1   25.06    1.20
   3 -12  -1   25.92    1.51
   3 -12  -1   23.04    1.36
   3 -12   0   40.84    1.54
   3 -12   0   37.38    2.93
   3 -12   0   44.54    1.98
   3 -12   0   45.32    4.00
   3 -12   0   47.15    1.73
   3 -12   0   46.18    1.59
   3 -12   0   46.05    1.66
   3 -12   0   47.70    1.78
   3 -12   0   44.23    1.76
   3 -12   0   42.47    1.74
   3 -12   0   44.66    1.57
   3 -12   1   14.64    1.02
   3 -12   1   13.92    1.07
   3 -12   1   15.92    1.50
   3 -12   1   17.10    3.14
   3 -12   1   12.12    1.99
   3 -12   1   13.41    1.13
   3 -12   1   13.50    1.07
   3 -12   1   14.00    0.99
   3 -12   1   15.61    1.22
   3 -12   1   13.96    1.34
   3 -12   1   12.50    1.09
   3 -12   1   14.83    1.04
   3 -12   2  187.87    3.67
   3 -12   2  185.84    3.75
   3 -12   2  184.21    3.80
   3 -12   2  181.69    6.41
   3 -12   2  181.07    3.70
   3 -12   2  186.95    3.85
   3 -12   2  186.57    3.87
   3 -12   2  184.25    3.73
   3 -12   3   13.40    1.02
   3 -12   3   13.26    1.05
   3 -12   3   13.33    1.00
   3 -12   3   12.86    1.33
   3 -12   3   12.60    2.88
   3 -12   3   14.19    1.22
   3 -12   3   12.25    1.07
   3 -12   3   12.47    1.33
   3 -12   4  294.41    5.28
   3 -12   4  287.87    5.19
   3 -12   4  284.69    5.17
   3 -12   4  283.11    5.03
   3 -12   4  277.68    7.72
   3 -12   4  288.55    5.25
   3 -12   4  292.33    5.15
   3 -12   5  160.72    3.39
   3 -12   5  156.45    3.35
   3 -12   5  148.99    3.27
   3 -12   5  158.07    3.16
   3 -12   5  144.09    3.14
   3 -12   5  153.37    3.35
   3 -12   5  166.56    3.32
   3 -12   6    2.79    0.68
   3 -12   6    2.50    0.73
   3 -12   6    2.55    0.76
   3 -12   7   77.28    1.95
   3 -12   8  101.37    2.24
   3 -12   8  100.49    2.34
   3 -12   8  102.72    2.36
   3 -12   8  107.13    2.41
   3 -12   9   61.55    1.66
   3 -12   9   63.33    1.69
   3 -12   9   66.32    1.74
   3 -12  10   37.39    1.18
   3 -12  10   37.63    1.21
   3 -12  11   68.18    1.50
   3 -12  11   73.21    1.54
   3 -12  12    0.98    0.29
   3 -12  12    0.56    0.28
   3 -11 -12    6.57    0.52
   3 -11 -11   29.34    1.00
   3 -11 -11   30.57    1.17
   3 -11 -10   33.47    1.19
   3 -11 -10   37.12    1.40
   3 -11  -9    7.26    0.77
   3 -11  -9    7.80    1.02
   3 -11  -8   19.24    1.26
   3 -11  -7   20.26    1.10
   3 -11  -7   21.33    1.32
   3 -11  -6   27.08    1.42
   3 -11  -6   25.38    1.34
   3 -11  -5  229.98    4.18
   3 -11  -5  227.98    6.84
   3 -11  -5  219.25    4.07
   3 -11  -4   16.03    1.07
   3 -11  -4   17.88    1.41
   3 -11  -4   19.54    3.11
   3 -11  -4   19.55    1.30
   3 -11  -3  236.28    7.31
   3 -11  -3  235.71    4.39
   3 -11  -3  208.49    4.12
   3 -11  -3  211.86    4.10
   3 -11  -3  243.65    4.33
   3 -11  -2    0.38    0.69
   3 -11  -2    0.44    0.63
   3 -11  -2    0.46    1.28
   3 -11  -2    1.43    2.79
   3 -11  -2    0.23    0.68
   3 -11  -2   -0.13    0.63
   3 -11  -2    0.01    0.83
   3 -11  -2   -0.12    0.88
   3 -11  -1  114.74    4.34
   3 -11  -1  123.09    2.91
   3 -11  -1  126.65    2.86
   3 -11  -1  125.31    2.88
   3 -11  -1  144.89    5.95
   3 -11  -1  134.76    3.19
   3 -11  -1  124.34    4.98
   3 -11  -1  129.14    2.96
   3 -11  -1  132.43    3.14
   3 -11  -1  118.47    2.85
   3 -11  -1  128.19    2.82
   3 -11   0    1.39    0.69
   3 -11   0    0.47    1.59
   3 -11   0    1.16    1.40
   3 -11   0    0.60    2.99
   3 -11   0    0.50    0.70
   3 -11   0    0.57    0.79
   3 -11   0    0.64    0.92
   3 -11   0    1.49    0.99
   3 -11   0    0.73    1.05
   3 -11   0    0.68    0.72
   3 -11   1  149.71    5.44
   3 -11   1  161.06    6.33
   3 -11   1  158.64    3.62
   3 -11   1  167.46    3.46
   3 -11   1  162.40    3.54
   3 -11   1  169.32    3.46
   3 -11   1  160.37    3.43
   3 -11   1  165.68    3.60
   3 -11   2   92.98    2.32
   3 -11   2   88.70    2.35
   3 -11   2   90.14    2.40
   3 -11   2   86.35    3.99
   3 -11   2   94.39    2.59
   3 -11   2   90.40    4.89
   3 -11   2   94.90    2.57
   3 -11   2   97.79    2.67
   3 -11   2   92.16    2.43
   3 -11   2   82.17    2.26
   3 -11   3  282.19    5.13
   3 -11   3  289.47    5.26
   3 -11   3  281.10    5.11
   3 -11   3  262.01    7.77
   3 -11   3  258.60    4.98
   3 -11   3  284.19    5.21
   3 -11   3  281.31    4.94
   3 -11   3  273.21    5.00
   3 -11   4  519.32   11.75
   3 -11   4  542.13    8.61
   3 -11   4  525.16    8.54
   3 -11   4  554.08    8.87
   3 -11   4  528.83    8.67
   3 -11   4  573.14    8.72
   3 -11   4  565.09    8.75
   3 -11   4  569.47    8.91
   3 -11   4  564.41    8.90
   3 -11   5    8.97    2.49
   3 -11   5    9.74    1.18
   3 -11   5   12.95    1.02
   3 -11   5   13.54    1.08
   3 -11   5    9.87    0.92
   3 -11   5   12.33    1.00
   3 -11   5   11.73    0.99
   3 -11   5   11.60    1.12
   3 -11   5   12.07    1.36
   3 -11   6   48.23    1.67
   3 -11   6   52.49    1.77
   3 -11   6   53.45    1.84
   3 -11   6   49.23    1.68
   3 -11   6   50.61    1.68
   3 -11   6   53.20    1.73
   3 -11   6   55.88    1.95
   3 -11   7    5.43    0.86
   3 -11   7    5.22    0.78
   3 -11   7    4.75    0.77
   3 -11   7    5.06    0.85
   3 -11   7    4.45    0.82
   3 -11   7    5.23    1.10
   3 -11   8   85.94    2.09
   3 -11   8   80.23    2.21
   3 -11   8   81.41    2.09
   3 -11   9   24.81    1.03
   3 -11   9   26.98    1.12
   3 -11   9   27.46    1.16
   3 -11  10   34.90    1.23
   3 -11  10   37.55    1.24
   3 -11  10   37.43    1.36
   3 -11  10   42.41    1.29
   3 -11  10   37.12    1.12
   3 -11  10   35.32    1.26
   3 -11  10   40.19    1.39
   3 -11  11   23.25    0.90
   3 -11  11   23.53    1.02
   3 -11  11   23.16    1.00
   3 -11  12   54.07    1.35
   3 -11  12   54.05    1.30
   3 -11  13    5.93    0.43
   3 -10 -13   44.49    1.08
   3 -10 -12   33.34    1.06
   3 -10 -12   35.74    1.18
   3 -10 -11   21.55    1.00
   3 -10 -11   19.65    1.09
   3 -10 -10   33.53    1.41
   3 -10  -9    4.82    0.98
   3 -10  -9    5.94    0.82
   3 -10  -8   69.09    2.03
   3 -10  -8   61.88    1.88
   3 -10  -7    4.15    0.82
   3 -10  -7    4.03    0.75
   3 -10  -7    4.33    1.03
   3 -10  -6  590.34    9.09
   3 -10  -6  565.47    9.19
   3 -10  -5    5.79    2.55
   3 -10  -5    6.20    1.18
   3 -10  -5    6.21    1.09
   3 -10  -5    5.93    0.83
   3 -10  -4   74.45    4.33
   3 -10  -4   73.64    2.19
   3 -10  -4   70.83    2.02
   3 -10  -4   68.39    1.90
   3 -10  -3    0.97    1.17
   3 -10  -3    2.23    2.77
   3 -10  -3    1.46    0.66
   3 -10  -3    1.27    0.60
   3 -10  -3    1.13    0.81
   3 -10  -3    1.47    0.66
   3 -10  -2   70.72    2.05
   3 -10  -2   64.31    1.93
   3 -10  -2   69.71    1.95
   3 -10  -2   63.23    1.87
   3 -10  -2   71.04    4.48
   3 -10  -2   67.94    2.27
   3 -10  -2   68.66    3.76
   3 -10  -2   68.60    2.01
   3 -10  -2   58.30    1.89
   3 -10  -1    0.23    0.91
   3 -10  -1    0.26    0.64
   3 -10  -1   -0.05    1.61
   3 -10  -1   -0.18    1.43
   3 -10  -1    1.61    3.28
   3 -10  -1    0.23    0.72
   3 -10  -1    0.25    0.62
   3 -10  -1    0.26    0.85
   3 -10  -1    0.32    0.95
   3 -10  -1    0.59    0.66
   3 -10   0   65.94    3.17
   3 -10   0   71.26    2.03
   3 -10   0   80.78    2.26
   3 -10   0   77.47    2.10
   3 -10   0   87.68    5.30
   3 -10   0   73.29    3.73
   3 -10   0   79.81    2.60
   3 -10   0   79.06    2.23
   3 -10   0   71.91    1.89
   3 -10   0   77.27    2.31
   3 -10   0   74.28    2.24
   3 -10   0   79.81    2.10
   3 -10   1    1.15    0.70
   3 -10   1    0.29    0.90
   3 -10   1    0.52    0.74
   3 -10   1    1.24    1.23
   3 -10   1    0.24    1.13
   3 -10   1    0.13    1.41
   3 -10   1    0.44    1.51
   3 -10   1    1.03    3.26
   3 -10   1    0.20    0.88
   3 -10   1    1.06    0.70
   3 -10   2   97.34    2.49
   3 -10   2  103.55    2.45
   3 -10   2  104.38    2.38
   3 -10   2  106.54    2.59
   3 -10   2   96.89    5.01
   3 -10   2   94.11    4.10
   3 -10   2   95.94    2.71
   3 -10   2  108.33    2.71
   3 -10   2  113.28    2.99
   3 -10   2  101.54    2.48
   3 -10   2  103.66    2.57
   3 -10   3   66.86    2.19
   3 -10   3   71.27    4.35
   3 -10   3   73.83    2.13
   3 -10   3   70.92    1.93
   3 -10   3   70.13    2.07
   3 -10   3   69.56    2.01
   3 -10   3   67.09    1.89
   3 -10   3   73.46    2.42
   3 -10   3   71.53    2.15
   3 -10   4    5.09    0.91
   3 -10   4    4.69    0.94
   3 -10   4    4.05    0.88
   3 -10   4    5.16    0.91
   3 -10   4    3.68    1.20
   3 -10   4    6.31    2.71
   3 -10   4    4.04    1.34
   3 -10   5   65.75    1.92
   3 -10   5   63.89    2.02
   3 -10   5   63.58    2.09
   3 -10   5   65.59    1.95
   3 -10   5   66.17    2.22
   3 -10   5   64.28    3.91
   3 -10   5   61.07    1.97
   3 -10   6    3.57    1.00
   3 -10   6    2.99    0.92
   3 -10   6    2.62    0.86
   3 -10   6    3.00    0.88
   3 -10   6    2.72    0.75
   3 -10   6    3.06    0.81
   3 -10   6    3.86    0.81
   3 -10   6    4.08    1.20
   3 -10   7   81.71    2.39
   3 -10   7   86.11    2.22
   3 -10   7   87.98    2.20
   3 -10   7   77.89    2.19
   3 -10   7   85.62    2.32
   3 -10   7   90.99    2.46
   3 -10   8   71.88    2.20
   3 -10   8   73.52    2.01
   3 -10   8   75.42    1.98
   3 -10   8   67.58    1.89
   3 -10   8   74.22    2.10
   3 -10   8   71.82    2.01
   3 -10   9   79.51    1.97
   3 -10   9   78.08    2.24
   3 -10   9   74.18    2.02
   3 -10   9   80.60    2.13
   3 -10  10    7.45    0.74
   3 -10  10    8.21    0.80
   3 -10  11   71.79    1.62
   3 -10  11   70.34    1.74
   3 -10  11   72.56    1.79
   3 -10  11   67.09    1.69
   3 -10  11   69.42    1.93
   3 -10  12    6.17    0.72
   3 -10  12    6.05    0.64
   3 -10  12    5.12    0.48
   3 -10  12    5.35    0.56
   3 -10  12    5.75    0.67
   3 -10  13   33.28    1.04
   3 -10  13   31.09    0.89
   3 -10  14    4.67    0.40
   3  -9 -14   26.14    0.76
   3  -9 -13    5.85    0.58
   3  -9 -13    6.38    0.61
   3  -9 -12   42.45    1.37
   3  -9 -12   39.96    1.25
   3  -9 -12   39.55    1.28
   3  -9 -11   44.36    1.53
   3  -9 -11   40.58    1.41
   3  -9 -10   47.07    1.65
   3  -9 -10   43.05    1.54
   3  -9  -9  119.59    2.58
   3  -9  -9  118.28    2.77
   3  -9  -8   83.17    2.10
   3  -9  -8   83.56    2.26
   3  -9  -7   64.44    1.88
   3  -9  -7   69.89    2.06
   3  -9  -7   65.48    1.96
   3  -9  -6    3.05    0.82
   3  -9  -6    2.80    0.74
   3  -9  -6    2.73    1.00
   3  -9  -5  351.36    6.08
   3  -9  -5  370.23    8.99
   3  -9  -5  367.73    6.10
   3  -9  -4   54.02    3.80
   3  -9  -4   54.12    1.88
   3  -9  -4   49.73    1.59
   3  -9  -4   58.51    1.87
   3  -9  -4   49.76    1.66
   3  -9  -4   50.81    1.62
   3  -9  -3  239.73    7.19
   3  -9  -3  227.44    4.36
   3  -9  -3  223.60    4.17
   3  -9  -3  236.49    4.28
   3  -9  -3  221.71    4.23
   3  -9  -3  227.82    4.26
   3  -9  -2   24.90    1.35
   3  -9  -2   22.92    2.43
   3  -9  -2   21.47    1.59
   3  -9  -2   22.49    3.54
   3  -9  -2   22.29    1.10
   3  -9  -2   23.86    1.16
   3  -9  -2   23.68    1.18
   3  -9  -2   22.03    1.21
   3  -9  -2   23.67    1.12
   3  -9  -2   19.80    1.22
   3  -9  -1  139.84    2.89
   3  -9  -1  129.01    4.79
   3  -9  -1  136.66    6.36
   3  -9  -1  125.14    3.23
   3  -9  -1  134.81    2.85
   3  -9  -1  125.76    2.89
   3  -9  -1  124.38    2.82
   3  -9  -1  131.04    2.89
   3  -9  -1  117.82    2.80
   3  -9  -1  128.86    2.77
   3  -9  -1  126.25    2.61
   3  -9   0    4.82    0.94
   3  -9   0    4.13    0.78
   3  -9   0    4.32    0.72
   3  -9   0    3.26    0.81
   3  -9   0    5.02    4.24
   3  -9   0    4.89    1.67
   3  -9   0    4.34    1.80
   3  -9   0    3.76    0.87
   3  -9   0    4.09    0.77
   3  -9   0    3.05    1.13
   3  -9   1  116.73    4.04
   3  -9   1  122.19    2.74
   3  -9   1  127.88    2.57
   3  -9   1  128.12    2.84
   3  -9   1  126.05    6.17
   3  -9   1  126.16    4.60
   3  -9   1  123.01    3.33
   3  -9   1  129.76    2.92
   3  -9   1  127.93    2.95
   3  -9   1  125.49    3.24
   3  -9   1  128.54    2.82
   3  -9   2    2.62    1.14
   3  -9   2    1.01    1.47
   3  -9   2    2.40    1.32
   3  -9   2    3.71    3.02
   3  -9   2    1.32    0.70
   3  -9   2    1.37    0.70
   3  -9   2    1.75    0.76
   3  -9   2    2.09    0.69
   3  -9   2    2.33    0.81
   3  -9   2    1.99    0.88
   3  -9   2    2.89    1.51
   3  -9   3  189.76    6.42
   3  -9   3  180.42    3.82
   3  -9   3  206.26    3.96
   3  -9   3  199.70    3.63
   3  -9   3  195.56    3.88
   3  -9   3  202.60    3.83
   3  -9   3  200.71    3.74
   3  -9   3  196.38    3.77
   3  -9   3  205.12    4.34
   3  -9   3  182.38    3.63
   3  -9   4   65.49    3.98
   3  -9   4   61.41    1.99
   3  -9   4   62.21    1.80
   3  -9   4   62.85    1.96
   3  -9   4   64.60    2.01
   3  -9   4   65.68    1.91
   3  -9   4   66.22    2.26
   3  -9   4   55.39    1.64
   3  -9   4   65.67    1.85
   3  -9   4   64.57    1.86
   3  -9   5   97.25    2.32
   3  -9   5   92.22    2.32
   3  -9   5   86.38    4.32
   3  -9   5   89.04    2.34
   3  -9   5   97.45    2.49
   3  -9   5   95.05    2.29
   3  -9   5   97.17    2.55
   3  -9   5   87.88    2.16
   3  -9   5   95.51    2.37
   3  -9   5   89.77    2.22
   3  -9   5   91.31    2.61
   3  -9   6    2.83    2.34
   3  -9   6    2.95    1.01
   3  -9   6    2.95    0.92
   3  -9   6    3.13    0.90
   3  -9   6    3.21    0.91
   3  -9   6    2.67    0.66
   3  -9   6    3.16    0.82
   3  -9   6    3.23    0.74
   3  -9   6    4.02    1.22
   3  -9   7    7.74    0.87
   3  -9   7    6.91    1.01
   3  -9   7    6.25    0.98
   3  -9   7    6.50    0.99
   3  -9   7    7.29    0.89
   3  -9   7    7.97    0.86
   3  -9   7    5.98    0.76
   3  -9   7    5.61    0.81
   3  -9   7    7.74    1.22
   3  -9   8  138.88    3.17
   3  -9   8  135.90    2.95
   3  -9   8  136.53    3.05
   3  -9   8  141.86    3.00
   3  -9   8  143.71    3.06
   3  -9   8  135.75    3.02
   3  -9   8  147.17    3.17
   3  -9   9   95.15    2.33
   3  -9   9   89.40    2.30
   3  -9   9   87.83    2.31
   3  -9   9   92.21    2.42
   3  -9   9   91.40    2.27
   3  -9   9   91.44    2.32
   3  -9   9   93.04    2.25
   3  -9  10    9.85    0.87
   3  -9  10   12.27    0.96
   3  -9  10   10.68    0.97
   3  -9  10   12.13    1.02
   3  -9  10   12.14    1.01
   3  -9  10   11.81    0.85
   3  -9  11   48.64    1.55
   3  -9  11   45.00    1.51
   3  -9  12   61.93    1.83
   3  -9  12   61.36    1.68
   3  -9  12   63.31    1.51
   3  -9  12   64.77    1.70
   3  -9  12   62.71    1.69
   3  -9  12   62.60    1.61
   3  -9  13   10.50    0.58
   3  -9  13   12.24    0.74
   3  -9  13   12.01    0.77
   3  -9  13   12.35    0.70
   3  -9  13   11.25    0.83
   3  -9  14   58.79    1.39
   3  -9  14   57.20    1.28
   3  -9  15    4.53    0.33
   3  -8 -14   10.37    0.59
   3  -8 -14    9.66    0.60
   3  -8 -13   46.38    1.30
   3  -8 -13   46.22    1.33
   3  -8 -12   14.26    0.99
   3  -8 -12   16.30    0.96
   3  -8 -11   41.09    1.53
   3  -8 -10   66.35    1.94
   3  -8 -10   68.42    1.98
   3  -8 -10   67.97    1.92
   3  -8  -9   43.87    1.63
   3  -8  -9   47.21    1.71
   3  -8  -9   45.57    1.65
   3  -8  -8  117.09    2.68
   3  -8  -8  124.22    2.87
   3  -8  -8  125.69    2.86
   3  -8  -7   66.40    1.93
   3  -8  -7   65.49    1.93
   3  -8  -7   68.15    2.00
   3  -8  -6  127.34    2.82
   3  -8  -6  122.82    2.71
   3  -8  -6  120.14    2.69
   3  -8  -6  121.56    2.65
   3  -8  -5   22.41    1.10
   3  -8  -5   26.71    1.37
   3  -8  -5   20.01    1.04
   3  -8  -5   21.36    1.13
   3  -8  -5   27.75    3.00
   3  -8  -5   25.12    1.36
   3  -8  -4  125.88    2.72
   3  -8  -4  120.45    2.64
   3  -8  -4  125.76    5.03
   3  -8  -4  118.75    2.77
   3  -8  -4  127.84    2.69
   3  -8  -4  119.37    2.60
   3  -8  -4  132.98    2.77
   3  -8  -4  132.70    2.84
   3  -8  -3    3.09    0.97
   3  -8  -3    2.81    0.66
   3  -8  -3    3.01    0.63
   3  -8  -3    2.84    0.65
   3  -8  -3    2.93    0.67
   3  -8  -3    2.70    0.75
   3  -8  -3    2.18    1.14
   3  -8  -3    3.50    2.66
   3  -8  -3    2.61    0.51
   3  -8  -2  422.69    9.39
   3  -8  -2  400.97    6.80
   3  -8  -2  434.65   10.18
   3  -8  -2  441.62    6.73
   3  -8  -2  418.02    6.70
   3  -8  -2  419.56    6.66
   3  -8  -2  419.13    6.67
   3  -8  -2  412.58    6.55
   3  -8  -2  417.31    6.43
   3  -8  -1   51.15    1.62
   3  -8  -1   50.17    2.92
   3  -8  -1   46.29    4.76
   3  -8  -1   45.47    2.11
   3  -8  -1   46.50    1.50
   3  -8  -1   44.58    1.56
   3  -8  -1   44.83    1.52
   3  -8  -1   47.19    1.57
   3  -8  -1   46.25    1.49
   3  -8  -1   46.34    1.39
   3  -8  -1   41.45    1.57
   3  -8   0  255.22    4.40
   3  -8   0  265.83    4.52
   3  -8   0  280.89   10.91
   3  -8   0  272.17    5.74
   3  -8   0  243.25    6.48
   3  -8   0  253.50    4.51
   3  -8   0  219.98    4.49
   3  -8   0  248.71    4.41
   3  -8   1    5.01    0.74
   3  -8   1    5.16    0.68
   3  -8   1    5.05    0.73
   3  -8   1    5.93    3.83
   3  -8   1    4.10    1.09
   3  -8   1    6.17    1.56
   3  -8   1    6.11    1.74
   3  -8   1    5.15    0.77
   3  -8   1    4.96    0.88
   3  -8   1    5.31    0.97
   3  -8   1    6.23    0.80
   3  -8   1    4.92    1.41
   3  -8   2  160.04    6.10
   3  -8   2  163.54    5.02
   3  -8   2  150.28    3.49
   3  -8   2  156.96    4.51
   3  -8   2  174.79    3.14
   3  -8   2  176.24    3.43
   3  -8   2  173.44    3.43
   3  -8   2  175.29    3.36
   3  -8   2  165.23    3.39
   3  -8   2  173.04    3.42
   3  -8   2  164.09    3.25
   3  -8   3   11.32    0.87
   3  -8   3   10.32    0.83
   3  -8   3    9.66    1.24
   3  -8   3    9.68    2.80
   3  -8   3   10.03    0.93
   3  -8   3    9.75    0.85
   3  -8   3   11.36    0.95
   3  -8   3   10.35    0.71
   3  -8   3   10.31    0.90
   3  -8   3    9.04    0.74
   3  -8   3    9.92    0.92
   3  -8   3   10.22    1.59
   3  -8   4  451.84    6.99
   3  -8   4  454.18    7.05
   3  -8   4  430.40    9.76
   3  -8   4  414.39    6.98
   3  -8   4  443.04    7.21
   3  -8   4  461.35    6.88
   3  -8   4  462.38    7.31
   3  -8   4  441.39    6.92
   3  -8   4  461.39    7.11
   3  -8   4  432.27    6.93
   3  -8   4  428.14    7.36
   3  -8   4  412.34    6.79
   3  -8   5    2.56    0.68
   3  -8   5    2.62    0.68
   3  -8   5    2.65    2.34
   3  -8   5    2.14    1.01
   3  -8   5    2.05    0.81
   3  -8   5    2.76    0.82
   3  -8   5    1.93    0.79
   3  -8   5    1.68    0.60
   3  -8   5    2.64    0.77
   3  -8   5    2.56    0.92
   3  -8   5    1.98    0.68
   3  -8   5    1.75    1.15
   3  -8   6  580.45    8.85
   3  -8   6  582.61    9.04
   3  -8   6  570.08    8.63
   3  -8   6  553.30    8.83
   3  -8   6  587.20    8.84
   3  -8   6  538.19    8.59
   3  -8   6  554.89   11.30
   3  -8   6  563.39    8.89
   3  -8   6  583.98    8.86
   3  -8   6  547.95    8.83
   3  -8   6  583.33    9.02
   3  -8   7    2.13    0.73
   3  -8   7    1.76    0.68
   3  -8   7    2.34    0.71
   3  -8   7    2.50    0.87
   3  -8   7    2.06    0.92
   3  -8   7    2.40    0.79
   3  -8   7    1.98    0.95
   3  -8   7    1.68    0.75
   3  -8   7    1.62    1.08
   3  -8   8  173.35    3.66
   3  -8   8  182.12    3.78
   3  -8   8  177.24    3.45
   3  -8   8  182.19    3.60
   3  -8   8  179.65    3.68
   3  -8   8  176.38    3.66
   3  -8   8  186.99    3.70
   3  -8   9   43.51    1.71
   3  -8   9   41.19    1.55
   3  -8   9   43.66    1.53
   3  -8   9   42.20    1.65
   3  -8   9   41.78    1.54
   3  -8   9   40.72    1.61
   3  -8  10   97.37    2.29
   3  -8  10   99.18    2.53
   3  -8  10   96.23    2.29
   3  -8  10   98.83    2.43
   3  -8  10   94.93    2.38
   3  -8  10   90.63    2.41
   3  -8  10   92.43    2.43
   3  -8  11  147.94    2.96
   3  -8  11  146.11    3.19
   3  -8  11  148.27    3.09
   3  -8  11  148.70    2.97
   3  -8  11  147.46    3.19
   3  -8  11  145.72    2.93
   3  -8  11  144.05    3.15
   3  -8  12    2.55    0.73
   3  -8  12    2.24    0.69
   3  -8  13   76.78    1.95
   3  -8  13   78.62    1.84
   3  -8  13   74.17    1.68
   3  -8  13   76.80    1.96
   3  -8  13   78.76    1.78
   3  -8  13   76.74    1.92
   3  -8  14   10.30    0.79
   3  -8  14    9.38    0.71
   3  -8  14   10.10    0.56
   3  -8  14   12.26    0.76
   3  -8  14   11.72    0.74
   3  -8  14   11.84    0.64
   3  -8  15   58.48    1.28
   3  -8  15   55.26    1.32
   3  -7 -15    2.08    0.37
   3  -7 -14   44.47    1.19
   3  -7 -14   44.46    1.22
   3  -7 -13   20.62    0.98
   3  -7 -13   19.60    0.98
   3  -7 -12  104.45    2.33
   3  -7 -11   23.17    1.22
   3  -7 -11   24.77    1.30
   3  -7 -11   22.84    1.16
   3  -7 -11   25.94    1.40
   3  -7 -10  144.42    3.13
   3  -7 -10  146.45    3.08
   3  -7 -10  143.53    2.93
   3  -7 -10  146.43    3.06
   3  -7  -9   83.41    2.24
   3  -7  -9   76.52    2.18
   3  -7  -9   79.38    2.05
   3  -7  -9   75.90    2.14
   3  -7  -9   80.66    2.22
   3  -7  -8   97.47    2.44
   3  -7  -8  102.95    2.52
   3  -7  -7   88.47    2.24
   3  -7  -7   88.71    2.30
   3  -7  -7   88.01    2.14
   3  -7  -7   89.55    2.31
   3  -7  -6   26.92    1.23
   3  -7  -6   27.34    1.53
   3  -7  -6   28.83    1.37
   3  -7  -6   28.07    1.15
   3  -7  -6   27.62    1.27
   3  -7  -5  296.37    5.02
   3  -7  -5  277.67    4.82
   3  -7  -5  299.42    5.24
   3  -7  -5  275.01    4.88
   3  -7  -5  312.45    5.09
   3  -7  -5  297.90    4.89
   3  -7  -5  289.54    4.89
   3  -7  -5  303.62    7.38
   3  -7  -4  208.09    3.81
   3  -7  -4  206.09    3.79
   3  -7  -4  203.94    3.77
   3  -7  -4  219.13    3.88
   3  -7  -4  196.91    3.59
   3  -7  -4  224.72    3.92
   3  -7  -4  219.43    3.76
   3  -7  -4  221.04    6.24
   3  -7  -4  209.90    3.85
   3  -7  -3  153.23    2.97
   3  -7  -3  155.91    2.97
   3  -7  -3  145.18    2.88
   3  -7  -3  149.77    2.93
   3  -7  -3  141.79    2.89
   3  -7  -3  136.07    2.68
   3  -7  -3  129.39    2.91
   3  -7  -3  141.73    5.15
   3  -7  -2   32.88    1.33
   3  -7  -2   28.61    1.18
   3  -7  -2   27.43    1.13
   3  -7  -2   31.20    1.19
   3  -7  -2   29.73    1.21
   3  -7  -2   28.24    1.04
   3  -7  -2   25.10    1.15
   3  -7  -2   29.08    1.11
   3  -7  -2   30.42    3.28
   3  -7  -2   30.15    1.49
   3  -7  -1  295.00    4.68
   3  -7  -1  275.54    6.71
   3  -7  -1  284.63    8.05
   3  -7  -1  274.53    4.92
   3  -7  -1  274.33    4.70
   3  -7  -1  272.42    4.74
   3  -7  -1  286.35    4.71
   3  -7  -1  274.86    4.69
   3  -7  -1  270.51    4.51
   3  -7  -1  270.22    4.59
   3  -7   0    7.36    0.91
   3  -7   0    7.06    1.56
   3  -7   0    8.20    3.74
   3  -7   0    8.14    0.75
   3  -7   0    6.10    0.73
   3  -7   0    8.92    0.87
   3  -7   0    5.35    1.07
   3  -7   0    6.49    0.73
   3  -7   1  762.18   10.96
   3  -7   1  795.49   11.49
   3  -7   1  796.57   15.19
   3  -7   1  739.84   11.12
   3  -7   1  762.80   11.13
   3  -7   1  727.49   10.74
   3  -7   1  773.33   11.04
   3  -7   1  751.57   11.14
   3  -7   1  723.57   11.39
   3  -7   1  711.91   11.22
   3  -7   1  755.07   11.09
   3  -7   2   17.40    2.99
   3  -7   2   14.18    1.31
   3  -7   2   12.95    0.92
   3  -7   2   13.42    0.90
   3  -7   2   14.15    0.73
   3  -7   2   13.04    0.77
   3  -7   2   14.00    0.90
   3  -7   2   13.67    1.01
   3  -7   2   17.31    1.66
   3  -7   2   14.05    0.84
   3  -7   3  273.92    4.59
   3  -7   3  268.31    4.55
   3  -7   3  258.45    4.64
   3  -7   3  260.97    7.02
   3  -7   3  285.97    4.78
   3  -7   3  292.94    4.46
   3  -7   3  293.72    4.86
   3  -7   3  274.40    4.52
   3  -7   3  243.12    4.17
   3  -7   3  285.94    4.67
   3  -7   3  271.90    4.55
   3  -7   3  277.91    4.45
   3  -7   3  299.20    5.27
   3  -7   3  258.62    4.59
   3  -7   4   39.96    1.32
   3  -7   4   42.59    1.37
   3  -7   4   41.86    3.19
   3  -7   4   39.21    1.51
   3  -7   4   44.63    1.53
   3  -7   4   46.22    1.57
   3  -7   4   43.95    1.37
   3  -7   4   42.87    1.50
   3  -7   4   44.73    1.44
   3  -7   4   43.19    1.25
   3  -7   4   41.14    1.37
   3  -7   4   42.78    1.75
   3  -7   4   38.89    1.31
   3  -7   5  803.05   11.64
   3  -7   5  817.26   11.68
   3  -7   5  821.07   11.88
   3  -7   5  812.41   11.77
   3  -7   5  752.72   14.18
   3  -7   5  747.66   11.53
   3  -7   5  823.36   11.75
   3  -7   5  795.50   11.76
   3  -7   5  792.51   11.73
   3  -7   5  805.46   11.46
   3  -7   5  737.20   11.35
   3  -7   5  796.70   11.86
   3  -7   6   16.45    0.98
   3  -7   6   15.01    1.12
   3  -7   6   16.20    1.01
   3  -7   6   16.94    0.97
   3  -7   6   15.69    2.41
   3  -7   6   14.41    1.10
   3  -7   6   14.52    1.14
   3  -7   6   15.18    1.03
   3  -7   6   14.34    1.01
   3  -7   6   16.35    1.26
   3  -7   7  290.06    5.06
   3  -7   7  292.60    5.21
   3  -7   7  302.87    5.34
   3  -7   7  293.41    5.20
   3  -7   7  302.96    5.17
   3  -7   7  282.42    5.07
   3  -7   7  291.35    5.17
   3  -7   8  257.25    4.76
   3  -7   8  257.50    4.60
   3  -7   8  260.36    4.84
   3  -7   8  252.18    4.69
   3  -7   8  261.87    4.66
   3  -7   8  258.83    4.65
   3  -7   9   88.62    2.46
   3  -7   9   83.98    2.36
   3  -7   9   87.92    2.27
   3  -7   9   81.98    2.36
   3  -7  10   20.72    1.18
   3  -7  10   20.01    1.33
   3  -7  10   21.86    1.20
   3  -7  10   19.94    1.35
   3  -7  10   20.36    1.17
   3  -7  10   20.23    1.05
   3  -7  11   96.22    2.47
   3  -7  11   97.39    2.33
   3  -7  11   94.73    2.51
   3  -7  11   97.07    2.28
   3  -7  11   99.11    2.59
   3  -7  11   88.91    2.22
   3  -7  12   78.62    1.96
   3  -7  12   77.53    2.21
   3  -7  12   78.54    2.13
   3  -7  12   79.06    1.99
   3  -7  12   76.10    2.24
   3  -7  12   75.06    2.18
   3  -7  12   79.63    2.00
   3  -7  13   20.57    1.15
   3  -7  13   20.70    1.17
   3  -7  13   20.45    1.00
   3  -7  13   19.70    0.95
   3  -7  13   20.54    1.12
   3  -7  14  129.55    2.66
   3  -7  14  130.00    2.51
   3  -7  14  130.85    2.68
   3  -7  14  126.17    2.61
   3  -7  14  125.75    2.35
   3  -7  15    1.92    0.54
   3  -7  15    1.74    0.52
   3  -7  15    2.46    0.55
   3  -7  15    1.64    0.36
   3  -7  15    2.31    0.57
   3  -7  15    2.72    0.58
   3  -7  15    2.16    0.38
   3  -7  16   11.07    0.53
   3  -7  16   10.74    0.51
   3  -6 -15   55.93    1.23
   3  -6 -14    7.76    0.71
   3  -6 -14    8.36    0.72
   3  -6 -13  120.54    2.51
   3  -6 -13  117.80    2.52
   3  -6 -12   15.10    1.05
   3  -6 -12   14.64    0.84
   3  -6 -12   16.99    1.07
   3  -6 -11   43.84    1.61
   3  -6 -11   42.43    1.58
   3  -6 -11   44.04    1.44
   3  -6 -11   42.77    1.55
   3  -6 -11   46.39    1.74
   3  -6 -10   12.59    1.09
   3  -6 -10   11.11    1.08
   3  -6 -10    9.86    0.83
   3  -6 -10   12.12    1.02
   3  -6 -10   11.67    1.31
   3  -6  -9  129.71    2.93
   3  -6  -9  127.30    2.89
   3  -6  -8   13.30    1.09
   3  -6  -8   10.66    1.31
   3  -6  -8   11.21    1.13
   3  -6  -8   10.84    0.86
   3  -6  -8   11.32    0.98
   3  -6  -7  306.02    5.22
   3  -6  -7  308.29    5.20
   3  -6  -7  305.68    5.09
   3  -6  -7  309.25    5.28
   3  -6  -6   56.66    1.70
   3  -6  -6   50.74    1.95
   3  -6  -6   53.08    1.63
   3  -6  -6   51.83    1.54
   3  -6  -6   56.51    1.73
   3  -6  -6   56.30    1.58
   3  -6  -6   54.73    1.51
   3  -6  -5   35.35    1.30
   3  -6  -5   32.15    1.15
   3  -6  -5   33.65    1.24
   3  -6  -5   32.56    1.30
   3  -6  -5   36.44    2.76
   3  -6  -5   36.18    1.41
   3  -6  -5   34.16    1.19
   3  -6  -5   37.20    2.02
   3  -6  -4  176.79    5.25
   3  -6  -4  170.99    3.22
   3  -6  -4  174.53    3.27
   3  -6  -4  165.67    3.06
   3  -6  -4  178.12    3.29
   3  -6  -4  173.69    3.15
   3  -6  -3  195.41    3.51
   3  -6  -3  193.11    3.37
   3  -6  -3  197.02    5.65
   3  -6  -3  184.30    3.49
   3  -6  -2  274.47    4.69
   3  -6  -2  309.98    7.28
   3  -6  -2  283.55    4.81
   3  -6  -2  281.89    4.77
   3  -6  -2  306.49    4.82
   3  -6  -2  294.27    4.64
   3  -6  -1   47.27    3.45
   3  -6  -1   44.49    1.15
   3  -6  -1   46.44    1.42
   3  -6  -1   48.35    1.45
   3  -6   0  315.02    4.94
   3  -6   0  296.67    4.71
   3  -6   0  324.88    7.86
   3  -6   0  294.04    6.68
   3  -6   1   10.42    0.86
   3  -6   1    9.06    0.60
   3  -6   1    8.74    1.47
   3  -6   1   10.55    2.81
   3  -6   2   92.31    2.81
   3  -6   2   95.94    2.03
   3  -6   2   91.54    1.73
   3  -6   2   97.28    1.98
   3  -6   2   91.73    3.24
   3  -6   2   94.68    4.11
   3  -6   3    9.80    0.53
   3  -6   3   10.78    0.71
   3  -6   3    9.27    1.08
   3  -6   3    9.46    1.38
   3  -6   3    9.86    1.04
   3  -6   3   10.80    2.43
   3  -6   3   10.40    1.16
   3  -6   3   10.00    0.71
   3  -6   3    9.47    0.69
   3  -6   4  342.57    5.45
   3  -6   4  354.16    5.50
   3  -6   4  350.83    5.67
   3  -6   4  339.90    5.21
   3  -6   4  347.86    5.57
   3  -6   4  329.45    7.66
   3  -6   4  323.20    5.46
   3  -6   4  339.33    5.59
   3  -6   4  356.90    5.58
   3  -6   4  333.99    5.54
   3  -6   4  353.81    5.76
   3  -6   5   23.39    1.01
   3  -6   5   23.10    1.02
   3  -6   5   23.36    1.17
   3  -6   5   24.20    1.08
   3  -6   5   22.31    0.86
   3  -6   5   22.88    1.17
   3  -6   5   23.77    2.49
   3  -6   5   25.57    1.12
   3  -6   5   23.15    1.17
   3  -6   5   24.52    0.96
   3  -6   5   22.62    1.08
   3  -6   5   22.93    1.28
   3  -6   5   22.19    0.95
   3  -6   6  110.73    2.41
   3  -6   6  120.19    2.68
   3  -6   6  115.25    2.42
   3  -6   6  113.91    2.58
   3  -6   6  102.84    2.31
   3  -6   6  103.02    4.00
   3  -6   6  117.04    2.60
   3  -6   6  120.82    2.57
   3  -6   6  115.68    2.36
   3  -6   6  103.96    2.17
   3  -6   6  111.82    2.59
   3  -6   7    1.64    0.64
   3  -6   7    0.63    0.85
   3  -6   7    0.88    0.73
   3  -6   7    0.83    0.89
   3  -6   7    0.85    0.54
   3  -6   7    0.99    0.93
   3  -6   8  207.53    3.89
   3  -6   8  221.53    4.08
   3  -6   8  229.26    4.39
   3  -6   8  235.53    4.25
   3  -6   8  225.22    4.28
   3  -6   8  212.98    3.92
   3  -6   8  224.12    4.12
   3  -6   9   66.96    2.12
   3  -6   9   67.72    2.02
   3  -6   9   68.66    1.96
   3  -6   9   65.52    1.82
   3  -6   9   67.11    2.17
   3  -6  10  397.37    6.52
   3  -6  10  373.90    6.57
   3  -6  10  381.34    6.75
   3  -6  11   38.53    1.68
   3  -6  11   37.01    1.51
   3  -6  11   36.42    1.69
   3  -6  11   37.86    1.40
   3  -6  12  248.86    4.51
   3  -6  12  235.86    4.60
   3  -6  12  250.40    4.83
   3  -6  12  241.14    4.29
   3  -6  12  250.99    4.80
   3  -6  12  251.56    4.46
   3  -6  13   33.35    1.46
   3  -6  13   30.43    1.47
   3  -6  13   34.69    1.53
   3  -6  13   35.73    1.34
   3  -6  14   20.51    0.93
   3  -6  14   19.02    1.14
   3  -6  14   19.97    1.08
   3  -6  14   18.08    0.92
   3  -6  14   19.51    1.12
   3  -6  14   19.90    1.14
   3  -6  14   19.45    0.98
   3  -6  15   42.04    1.37
   3  -6  15   46.89    1.44
   3  -6  15   39.92    1.07
   3  -6  15   41.73    1.36
   3  -6  15   36.25    1.08
   3  -6  15   45.41    1.31
   3  -6  16   16.97    0.78
   3  -6  16   18.90    0.74
   3  -6  16   19.24    0.80
   3  -6  16   21.17    0.82
   3  -5 -15    0.13    0.47
   3  -5 -14   44.31    1.32
   3  -5 -14   43.32    1.32
   3  -5 -13    0.19    0.70
   3  -5 -13   -0.12    0.44
   3  -5 -13   -0.16    0.64
   3  -5 -13    0.41    0.69
   3  -5 -12  168.25    3.42
   3  -5 -12  170.78    3.41
   3  -5 -12  179.52    3.25
   3  -5 -12  159.69    3.35
   3  -5 -11    1.87    0.78
   3  -5 -11    2.95    1.24
   3  -5 -11    2.67    0.85
   3  -5 -11    2.08    0.94
   3  -5 -11    1.12    0.85
   3  -5 -11    1.61    0.63
   3  -5 -10  143.92    3.20
   3  -5 -10  152.60    3.27
   3  -5 -10  154.47    3.28
   3  -5 -10  142.24    3.00
   3  -5 -10  142.84    3.10
   3  -5 -10  153.66    3.10
   3  -5  -9   81.40    2.31
   3  -5  -9   84.88    2.26
   3  -5  -9   80.92    2.21
   3  -5  -8   38.03    1.49
   3  -5  -8   33.83    1.49
   3  -5  -8   35.77    1.32
   3  -5  -8   35.65    1.44
   3  -5  -8   33.56    1.63
   3  -5  -7   39.75    1.46
   3  -5  -7   35.34    1.62
   3  -5  -7   35.96    1.48
   3  -5  -7   39.35    1.35
   3  -5  -7   36.99    1.21
   3  -5  -7   40.42    1.43
   3  -5  -6   51.40    1.60
   3  -5  -6   49.14    1.83
   3  -5  -6   50.40    1.62
   3  -5  -6   54.26    1.51
   3  -5  -6   47.99    1.40
   3  -5  -6   53.25    1.57
   3  -5  -6   48.77    1.41
   3  -5  -5   40.08    1.42
   3  -5  -5   40.57    1.26
   3  -5  -5   44.14    1.74
   3  -5  -4  311.76    5.04
   3  -5  -4  305.00    4.92
   3  -5  -3  388.30    5.98
   3  -5  -3  378.82    5.87
   3  -5  -2   17.61    0.98
   3  -5  -2   17.79    0.78
   3  -5  -1   82.68    1.86
   3  -5  -1   80.50    1.69
   3  -5  -1   77.63    1.62
   3  -5   0  194.41    3.30
   3  -5   0  185.80    3.14
   3  -5   0  187.57    4.71
   3  -5   1 1113.49   15.47
   3  -5   1 1093.30   15.41
   3  -5   1 1103.17   17.22
   3  -5   2  265.93    5.28
   3  -5   2  287.51    4.50
   3  -5   2  283.05    4.29
   3  -5   2  284.04    4.50
   3  -5   2  272.69    5.82
   3  -5   3  808.47   11.44
   3  -5   3  809.00   11.44
   3  -5   3  808.37   11.22
   3  -5   3  816.32   11.56
   3  -5   4    7.16    0.69
   3  -5   4    7.30    0.49
   3  -5   4    8.10    0.64
   3  -5   4    8.07    0.65
   3  -5   5  195.82    3.59
   3  -5   5  191.41    3.24
   3  -5   5  191.84    3.41
   3  -5   5  194.27    3.41
   3  -5   5  197.48    3.39
   3  -5   5  199.94    3.61
   3  -5   5  192.64    3.23
   3  -5   6    0.48    0.45
   3  -5   6    0.51    0.55
   3  -5   6    0.70    0.56
   3  -5   6    1.21    0.74
   3  -5   6    1.17    0.67
   3  -5   6    1.02    0.77
   3  -5   6    0.82    0.87
   3  -5   6    0.85    0.69
   3  -5   6    0.57    0.56
   3  -5   7  574.10    8.62
   3  -5   7  572.57    8.69
   3  -5   7  567.81    8.28
   3  -5   7  574.41    8.83
   3  -5   8  274.00    4.80
   3  -5   8  263.54    4.82
   3  -5   8  255.91    4.26
   3  -5   8  275.75    4.65
   3  -5   8  261.43    4.49
   3  -5   9  275.07    5.09
   3  -5   9  276.45    4.88
   3  -5   9  265.93    4.72
   3  -5  10   58.27    1.89
   3  -5  10   52.16    1.97
   3  -5  10   51.98    1.77
   3  -5  10   54.49    1.65
   3  -5  11    5.33    0.93
   3  -5  11    4.92    1.14
   3  -5  11    3.71    0.73
   3  -5  12    2.69    0.83
   3  -5  12    2.53    1.05
   3  -5  12    2.45    0.73
   3  -5  13   14.83    1.24
   3  -5  13   14.12    1.04
   3  -5  13   12.08    1.14
   3  -5  13   14.29    1.01
   3  -5  14   12.50    1.08
   3  -5  14   14.26    0.96
   3  -5  15   69.62    1.93
   3  -5  15   75.67    1.96
   3  -5  15   68.04    1.89
   3  -5  15   67.99    1.53
   3  -5  15   72.92    1.85
   3  -5  15   62.15    1.62
   3  -5  16   17.48    0.86
   3  -5  16   18.04    0.88
   3  -5  16   13.69    0.65
   3  -5  16   14.35    0.53
   3  -5  16   16.88    0.88
   3  -5  16   18.18    0.92
   3  -5  17   24.82    0.71
   3  -5  17   25.18    0.78
   3  -5  17   24.04    0.78
   3  -4 -15   18.55    0.80
   3  -4 -14   15.08    0.91
   3  -4 -14   16.29    0.92
   3  -4 -14   14.14    0.85
   3  -4 -13   73.08    1.74
   3  -4 -13   70.54    1.91
   3  -4 -12   22.25    1.20
   3  -4 -12   21.07    1.02
   3  -4 -12   24.57    1.27
   3  -4 -12   23.46    1.25
   3  -4 -11   94.23    2.40
   3  -4 -11   92.77    2.38
   3  -4 -11   95.89    2.49
   3  -4 -11   92.29    2.30
   3  -4 -11   91.45    2.20
   3  -4 -10   41.93    1.61
   3  -4 -10   42.96    1.62
   3  -4 -10   41.18    1.80
   3  -4 -10   36.59    1.59
   3  -4 -10   35.12    1.46
   3  -4 -10   37.66    1.41
   3  -4  -9   65.37    1.99
   3  -4  -9   62.44    1.95
   3  -4  -9   66.39    2.13
   3  -4  -9   61.95    1.94
   3  -4  -9   64.52    1.93
   3  -4  -9   68.30    1.86
   3  -4  -8   71.11    1.97
   3  -4  -8   66.07    1.92
   3  -4  -8   65.34    2.04
   3  -4  -8   68.42    1.96
   3  -4  -8   66.34    1.82
   3  -4  -7   34.76    1.33
   3  -4  -7   29.43    1.08
   3  -4  -7   31.74    1.28
   3  -4  -7   32.72    1.52
   3  -4  -7   30.53    1.58
   3  -4  -7   34.48    1.41
   3  -4  -6  203.05    3.77
   3  -4  -6  198.28    3.56
   3  -4  -6  205.66    3.73
   3  -4  -5  152.61    2.97
   3  -4  -5  155.59    2.85
   3  -4  -4  159.12    2.95
   3  -4  -4  161.09    2.89
   3  -4  -3  418.28    6.46
   3  -4  -3  429.98    6.42
   3  -4  -2  202.45    3.39
   3  -4  -2  194.71    3.28
   3  -4  -2  208.47    5.22
   3  -4  -1  108.00    2.12
   3  -4  -1  105.10    1.99
   3  -4  -1  111.16    3.85
   3  -4   0  341.27    5.17
   3  -4   0  328.58    5.05
   3  -4   1    6.22    0.72
   3  -4   1    6.11    1.18
   3  -4   1    7.03    2.21
   3  -4   2  507.49    7.36
   3  -4   2  510.24    9.38
   3  -4   2  498.72    8.48
   3  -4   3   24.90    0.78
   3  -4   3   25.13    0.93
   3  -4   3   25.52    0.86
   3  -4   3   24.90    0.87
   3  -4   3   24.92    2.48
   3  -4   3   22.08    1.17
   3  -4   3   23.19    1.41
   3  -4   4  203.97    3.31
   3  -4   4  207.26    3.23
   3  -4   4  205.29    3.56
   3  -4   4  200.03    3.35
   3  -4   4  198.80    3.35
   3  -4   4  186.71    4.04
   3  -4   4  189.91    5.06
   3  -4   5    1.43    0.40
   3  -4   5    1.42    0.48
   3  -4   5    1.11    0.57
   3  -4   5    1.14    0.50
   3  -4   5    1.62    0.50
   3  -4   5    1.52    1.90
   3  -4   6  197.95    3.55
   3  -4   6  204.64    3.54
   3  -4   6  202.37    3.52
   3  -4   7   18.19    0.91
   3  -4   7   18.60    0.94
   3  -4   7   19.34    0.82
   3  -4   7   19.59    1.07
   3  -4   7   19.98    1.01
   3  -4   7   20.69    1.02
   3  -4   7   18.23    0.84
   3  -4   8 1129.36   16.04
   3  -4   8 1059.11   15.71
   3  -4   8 1152.45   15.66
   3  -4   8 1191.27   16.34
   3  -4   8 1129.81   15.94
   3  -4   8 1140.00   16.03
   3  -4   8 1084.06   15.89
   3  -4   9    1.42    0.57
   3  -4   9    1.50    0.69
   3  -4   9    1.72    0.70
   3  -4   9    1.46    0.84
   3  -4   9    1.20    0.60
   3  -4   9    1.49    0.81
   3  -4  10  341.02    5.84
   3  -4  10  330.71    5.46
   3  -4  11  173.34    3.67
   3  -4  12    6.25    1.00
   3  -4  12    6.20    0.84
   3  -4  12    6.03    0.75
   3  -4  13   53.00    1.80
   3  -4  13   56.03    1.80
   3  -4  13   50.14    1.55
   3  -4  14    4.62    1.03
   3  -4  14    4.71    0.81
   3  -4  14    4.99    0.92
   3  -4  14    4.67    0.80
   3  -4  15   19.01    1.14
   3  -4  15   18.13    1.13
   3  -4  15   15.80    0.83
   3  -4  15   15.82    0.96
   3  -4  15   20.24    1.18
   3  -4  16  106.39    2.26
   3  -4  16  107.69    2.26
   3  -4  16   91.21    1.73
   3  -4  16  101.74    2.26
   3  -4  16   87.70    1.94
   3  -4  16  111.81    2.22
   3  -4  17   24.77    0.84
   3  -4  17   25.47    0.88
   3  -4  17   24.40    0.90
   3  -3 -14   49.81    1.45
   3  -3 -14   50.28    1.44
   3  -3 -14   48.59    1.42
   3  -3 -13    0.36    0.92
   3  -3 -13    1.00    0.51
   3  -3 -12   80.46    2.16
   3  -3 -12   79.07    2.14
   3  -3 -12   74.62    2.11
   3  -3 -12   79.81    2.13
   3  -3 -12   75.84    1.95
   3  -3 -11    5.43    0.94
   3  -3 -11    6.48    1.00
   3  -3 -11    5.55    0.95
   3  -3 -11    6.70    1.17
   3  -3 -11    6.99    0.77
   3  -3 -10  101.08    2.61
   3  -3 -10   94.25    2.46
   3  -3 -10   90.98    2.40
   3  -3 -10  100.15    2.50
   3  -3  -9   58.69    1.83
   3  -3  -9   57.66    1.82
   3  -3  -9   55.44    1.97
   3  -3  -9   50.43    1.82
   3  -3  -9   48.35    1.71
   3  -3  -8   76.31    2.03
   3  -3  -8   74.20    2.01
   3  -3  -8   73.94    2.10
   3  -3  -8   66.86    2.02
   3  -3  -8   69.62    2.05
   3  -3  -7  169.42    3.17
   3  -3  -7  152.09    2.88
   3  -3  -7  162.75    3.14
   3  -3  -7  162.56    3.16
   3  -3  -7  141.07    2.80
   3  -3  -7  150.47    3.16
   3  -3  -7  160.01    3.20
   3  -3  -6   27.17    1.25
   3  -3  -6   29.92    1.34
   3  -3  -6   28.74    1.01
   3  -3  -6   32.06    1.19
   3  -3  -5   53.51    1.34
   3  -3  -5   51.82    1.50
   3  -3  -4  414.91    6.28
   3  -3  -4  436.98    6.43
   3  -3  -3   64.05    1.54
   3  -3  -2   38.87    1.17
   3  -3  -2   40.04    2.56
   3  -3  -1  363.61    5.47
   3  -3  -1  357.97    5.40
   3  -3   0   29.18    1.03
   3  -3   0   30.41    0.85
   3  -3   0   30.22    1.56
   3  -3   0   31.18    2.48
   3  -3   1  341.33    5.15
   3  -3   1  339.14    5.00
   3  -3   1  340.46    6.26
   3  -3   1  348.00    6.93
   3  -3   2   10.79    0.74
   3  -3   2   11.28    1.05
   3  -3   2   12.26    2.17
   3  -3   2   11.63    1.11
   3  -3   3  471.36    7.14
   3  -3   3  463.37    7.56
   3  -3   3  472.89    8.82
   3  -3   4  269.05    4.16
   3  -3   4  285.90    4.18
   3  -3   4  277.50    4.46
   3  -3   4  278.19    4.24
   3  -3   4  270.74    4.21
   3  -3   4  247.17    4.53
   3  -3   4  256.23    5.88
   3  -3   5  247.29    3.72
   3  -3   5  243.92    4.08
   3  -3   5  235.48    3.76
   3  -3   5  239.01    3.83
   3  -3   5  235.14    3.80
   3  -3   6   11.91    0.60
   3  -3   6   12.01    0.69
   3  -3   6   11.92    0.63
   3  -3   7  496.91    7.63
   3  -3   7  523.56    7.73
   3  -3   7  527.73    7.78
   3  -3   7  533.64    7.66
   3  -3   7  504.81    7.73
   3  -3   8   76.31    1.80
   3  -3   8   78.33    1.91
   3  -3   8   81.60    2.13
   3  -3   8   80.52    1.94
   3  -3   8   80.34    1.90
   3  -3   8   80.90    1.71
   3  -3   8   74.88    1.82
   3  -3   9  492.50    7.84
   3  -3   9  517.19    8.07
   3  -3   9  564.94    8.40
   3  -3   9  497.64    7.46
   3  -3   9  544.41    8.03
   3  -3   9  539.88    7.94
   3  -3   9  486.38    7.71
   3  -3   9  538.02    7.62
   3  -3  10   10.89    0.87
   3  -3  10   10.08    1.06
   3  -3  10    9.57    0.65
   3  -3  10   11.23    1.02
   3  -3  10   12.45    1.02
   3  -3  10    9.08    0.86
   3  -3  11   95.03    2.02
   3  -3  11  109.19    2.45
   3  -3  11  108.88    2.55
   3  -3  11  103.14    2.45
   3  -3  11   97.84    2.33
   3  -3  11  106.59    2.74
   3  -3  12  134.81    3.21
   3  -3  12  135.64    2.98
   3  -3  12  137.19    3.01
   3  -3  12  140.21    2.93
   3  -3  13   22.76    1.25
   3  -3  13   22.30    1.12
   3  -3  13   20.94    1.33
   3  -3  14   14.73    0.94
   3  -3  14   16.19    1.11
   3  -3  14   13.81    1.12
   3  -3  15  231.51    4.11
   3  -3  15  186.94    3.38
   3  -3  16   10.47    0.85
   3  -3  16    9.75    0.85
   3  -3  16    8.13    0.57
   3  -3  16    8.53    0.77
   3  -3  16   10.22    0.99
   3  -3  17   50.01    1.33
   3  -3  17   44.68    1.18
   3  -3  17   62.22    1.46
   3  -3  17   57.27    1.47
   3  -3  17   55.12    1.37
   3  -3  18   21.87    0.68
   3  -3  18   24.85    0.68
   3  -2 -15   15.20    0.85
   3  -2 -14   41.37    1.36
   3  -2 -14   43.42    1.39
   3  -2 -14   43.97    1.18
   3  -2 -13  129.25    2.71
   3  -2 -13  122.44    2.53
   3  -2 -12    0.38    0.78
   3  -2 -12    0.59    0.79
   3  -2 -12    0.19    1.08
   3  -2 -12    0.40    0.60
   3  -2 -12    0.23    0.82
   3  -2 -11  199.13    3.92
   3  -2 -11  201.78    3.93
   3  -2 -11  194.51    3.85
   3  -2 -11  196.63    3.94
   3  -2 -10    4.12    0.96
   3  -2 -10    2.46    1.33
   3  -2 -10    3.90    0.91
   3  -2 -10    4.39    0.89
   3  -2 -10    3.16    1.15
   3  -2  -9   25.36    1.55
   3  -2  -9   23.28    1.24
   3  -2  -9   22.92    1.41
   3  -2  -9   23.17    1.26
   3  -2  -8    6.15    0.85
   3  -2  -8    5.51    0.84
   3  -2  -8    6.51    1.20
   3  -2  -8    5.97    1.11
   3  -2  -8    6.17    1.10
   3  -2  -7  186.64    3.48
   3  -2  -7  191.46    3.49
   3  -2  -7  172.69    3.63
   3  -2  -7  183.95    3.46
   3  -2  -7  177.19    3.43
   3  -2  -6   11.73    1.01
   3  -2  -6   13.08    1.11
   3  -2  -5  449.31    6.79
   3  -2  -4  149.65    2.68
   3  -2  -4  152.49    2.67
   3  -2  -3  384.42    6.70
   3  -2  -3  367.53    5.56
   3  -2  -2  260.56    5.15
   3  -2  -2  256.08    3.99
   3  -2  -1  238.66    4.81
   3  -2  -1  229.93    3.63
   3  -2   0 1456.30   21.47
   3  -2   0 1522.96   21.88
   3  -2   0 1463.19   20.12
   3  -2   0 1467.85   20.06
   3  -2   1   68.06    2.23
   3  -2   1   67.79    2.89
   3  -2   1   64.21    1.41
   3  -2   2  926.13   14.17
   3  -2   3   25.61    1.41
   3  -2   3   24.18    0.76
   3  -2   4   30.08    1.44
   3  -2   4   30.01    0.86
   3  -2   4   28.18    1.01
   3  -2   5   27.24    1.36
   3  -2   5   22.69    0.72
   3  -2   5   24.70    0.84
   3  -2   5   26.54    0.78
   3  -2   5   25.97    1.01
   3  -2   5   24.33    0.79
   3  -2   6  114.38    2.13
   3  -2   6  112.54    2.10
   3  -2   6  119.27    2.22
   3  -2   7   12.00    0.67
   3  -2   7   12.01    0.73
   3  -2   8  169.45    3.19
   3  -2   8  189.57    3.38
   3  -2   8  193.62    3.35
   3  -2   8  174.35    3.26
   3  -2   8  187.08    3.13
   3  -2   8  175.81    3.34
   3  -2   8  181.02    3.24
   3  -2   9    2.21    0.62
   3  -2   9    2.09    0.60
   3  -2   9    2.72    0.52
   3  -2   9    3.21    0.61
   3  -2   9    3.46    0.78
   3  -2   9    3.06    0.79
   3  -2   9    2.37    0.78
   3  -2   9    2.50    0.59
   3  -2  10  416.42    6.78
   3  -2  10  419.51    6.74
   3  -2  10  445.44    6.88
   3  -2  10  452.79    6.80
   3  -2  10  443.93    6.42
   3  -2  10  380.96    6.59
   3  -2  10  400.63    6.32
   3  -2  10  493.89    6.86
   3  -2  11   17.96    0.84
   3  -2  11   19.42    1.20
   3  -2  11   21.12    1.19
   3  -2  11   18.54    1.08
   3  -2  11   18.44    1.03
   3  -2  12  198.36    3.81
   3  -2  12  195.87    3.69
   3  -2  12  190.90    4.04
   3  -2  13    1.43    0.95
   3  -2  13    1.71    0.78
   3  -2  13    1.99    0.70
   3  -2  13    2.08    0.96
   3  -2  13    1.84    0.86
   3  -2  14  424.06    7.40
   3  -2  14  446.98    7.04
   3  -2  15    9.52    0.97
   3  -2  15   10.94    0.84
   3  -2  16  195.26    3.57
   3  -2  16  202.23    3.66
   3  -2  17   70.18    1.69
   3  -2  17   69.46    1.63
   3  -2  17   76.37    1.86
   3  -2  17   77.65    1.75
   3  -2  18   24.99    0.80
   3  -2  18   27.13    0.83
   3  -1 -15    0.43    0.70
   3  -1 -14   65.36    1.68
   3  -1 -14   68.51    1.76
   3  -1 -13    7.05    0.76
   3  -1 -13    8.38    0.73
   3  -1 -12  169.32    3.43
   3  -1 -12  172.87    3.46
   3  -1 -12  174.39    3.45
   3  -1 -12  169.97    3.49
   3  -1 -11    1.10    0.90
   3  -1 -11    1.16    0.92
   3  -1 -11    1.73    1.19
   3  -1 -11    0.93    0.86
   3  -1 -10  308.45    5.46
   3  -1 -10  310.74    5.42
   3  -1 -10  307.25    5.43
   3  -1 -10  309.25    5.37
   3  -1  -9   12.90    1.05
   3  -1  -9   12.78    1.28
   3  -1  -9   14.12    1.11
   3  -1  -9   13.60    1.08
   3  -1  -8   93.96    2.34
   3  -1  -8   92.68    2.27
   3  -1  -8   88.98    2.28
   3  -1  -8   95.22    2.28
   3  -1  -7    9.16    1.14
   3  -1  -7   10.11    0.85
   3  -1  -7    9.29    1.06
   3  -1  -7   10.15    0.86
   3  -1  -6  448.88    6.53
   3  -1  -6  394.51    6.52
   3  -1  -5   56.88    1.43
   3  -1  -4  612.49    9.87
   3  -1  -3   17.09    0.77
   3  -1  -3   14.75    1.19
   3  -1  -2   45.21    1.89
   3  -1  -1  177.38    3.91
   3  -1  -1  158.50    2.63
   3  -1   0 1404.82   20.26
   3  -1   0 1363.18   18.76
   3  -1   1  742.70   11.15
   3  -1   1  678.87    9.67
   3  -1   2  329.29    5.91
   3  -1   2  309.71    4.64
   3  -1   3   16.94    1.25
   3  -1   3   17.26    0.64
   3  -1   4  795.72   12.01
   3  -1   4  753.08   10.58
   3  -1   5   53.93    1.48
   3  -1   5   59.10    1.25
   3  -1   5   57.83    2.00
   3  -1   6  521.87    6.83
   3  -1   6  449.41    6.84
   3  -1   6  442.71    6.76
   3  -1   6  448.45    6.76
   3  -1   6  497.29    7.88
   3  -1   7 1078.60   15.78
   3  -1   7 1109.44   15.79
   3  -1   8    1.59    0.54
   3  -1   8    2.05    0.55
   3  -1   8    2.24    0.71
   3  -1   8    1.67    0.70
   3  -1   8    1.56    0.48
   3  -1   9  526.73    8.43
   3  -1   9  543.65    8.45
   3  -1   9  603.18    8.33
   3  -1   9  577.36    8.63
   3  -1   9  582.36    8.54
   3  -1   9  498.35    8.41
   3  -1   9  558.56    8.27
   3  -1   9  656.66    8.59
   3  -1  10   11.11    0.86
   3  -1  10   11.28    0.85
   3  -1  10   10.52    0.99
   3  -1  10   10.25    0.94
   3  -1  10    8.69    0.93
   3  -1  10   11.15    0.73
   3  -1  10    9.48    0.68
   3  -1  10   12.05    0.83
   3  -1  11  135.93    3.00
   3  -1  11  140.21    2.95
   3  -1  11  149.67    3.09
   3  -1  11  154.27    3.02
   3  -1  11  125.70    2.85
   3  -1  11  137.40    2.57
   3  -1  11  169.83    3.05
   3  -1  12   83.13    2.14
   3  -1  12   87.61    2.18
   3  -1  12   84.39    2.25
   3  -1  13  118.46    2.47
   3  -1  13  124.50    2.82
   3  -1  13  125.53    2.98
   3  -1  13  133.04    2.95
   3  -1  13  130.36    2.81
   3  -1  14   57.85    1.73
   3  -1  14   57.76    1.88
   3  -1  14   56.73    1.76
   3  -1  15  288.24    5.31
   3  -1  15  299.92    5.33
   3  -1  15  297.35    5.08
   3  -1  16   33.21    1.31
   3  -1  16   32.71    1.31
   3  -1  16   36.98    1.25
   3  -1  17   59.55    1.56
   3  -1  17   55.93    1.49
   3  -1  18   75.56    1.59
   3  -1  18   65.12    1.41
   3   0 -15   11.10    0.83
   3   0 -14   20.59    0.91
   3   0 -14   20.83    0.83
   3   0 -13  120.66    2.53
   3   0 -12   74.29    2.09
   3   0 -12   74.28    2.13
   3   0 -12   72.51    1.97
   3   0 -11  308.68    5.39
   3   0 -11  303.71    5.40
   3   0 -11  305.61    5.36
   3   0 -11  308.19    5.47
   3   0 -10    0.86    0.88
   3   0 -10    0.61    0.86
   3   0 -10    0.45    1.22
   3   0 -10    0.31    0.89
   3   0  -9  226.63    4.18
   3   0  -9  221.22    4.18
   3   0  -9  225.38    4.22
   3   0  -9  219.35    4.15
   3   0  -8   15.08    1.02
   3   0  -8   14.96    1.02
   3   0  -8   14.79    1.00
   3   0  -8   13.31    1.22
   3   0  -7  243.78    4.24
   3   0  -7  247.94    4.26
   3   0  -7  234.64    4.19
   3   0  -7  248.55    4.28
   3   0  -6    0.36    0.85
   3   0  -6    0.83    0.92
   3   0  -5  409.09    6.99
   3   0  -4    2.26    0.80
   3   0  -3  746.26   10.37
   3   0  -3  745.00   11.70
   3   0  -3  727.51   10.32
   3   0  -2   21.24    0.69
   3   0  -2   21.25    1.36
   3   0  -2   22.32    0.73
   3   0  -1  120.30    2.00
   3   0  -1  117.65    2.07
   3   0   0  670.11   10.75
   3   0   0  671.57    9.44
   3   0   1  878.92   13.57
   3   0   1  884.63   12.26
   3   0   2  179.83    3.91
   3   0   2  173.66    2.79
   3   0   3  205.94    4.28
   3   0   3  200.30    3.14
   3   0   4  957.60   14.59
   3   0   4  961.47   13.27
   3   0   5   10.93    1.06
   3   0   5   10.68    0.53
   3   0   6  410.60    5.53
   3   0   6  349.68    5.49
   3   0   6  351.83    5.48
   3   0   6  392.75    6.66
   3   0   6  368.10    5.37
   3   0   7  118.80    2.05
   3   0   7  105.75    2.11
   3   0   7  107.58    2.11
   3   0   7  116.05    2.83
   3   0   8  140.59    2.74
   3   0   8  144.77    2.76
   3   0   8  164.99    2.91
   3   0   8  159.76    2.71
   3   0   9  218.41    3.97
   3   0   9  227.15    3.99
   3   0   9  229.04    4.14
   3   0   9  232.91    4.07
   3   0   9  222.49    3.84
   3   0  10  493.04    7.91
   3   0  10  494.96    7.89
   3   0  10  506.49    7.74
   3   0  10  529.39    8.08
   3   0  10  538.28    7.97
   3   0  10  482.61    7.59
   3   0  11    1.56    0.73
   3   0  11    1.29    0.69
   3   0  11    0.78    0.87
   3   0  11    1.02    0.82
   3   0  11    1.02    0.85
   3   0  11    0.91    0.64
   3   0  11    0.52    0.57
   3   0  12  131.69    2.91
   3   0  12  130.17    3.01
   3   0  12  144.43    3.09
   3   0  12  143.79    2.97
   3   0  12  130.05    2.84
   3   0  12  129.62    2.54
   3   0  12  141.81    2.88
   3   0  13    3.61    0.72
   3   0  13    4.58    0.81
   3   0  13    4.75    1.04
   3   0  13    4.57    0.94
   3   0  14  171.23    3.22
   3   0  14  176.11    3.53
   3   0  14  173.04    3.40
   3   0  14  179.60    3.61
   3   0  15   81.95    2.26
   3   0  15   83.99    2.21
   3   0  15   88.74    2.22
   3   0  16   44.24    1.69
   3   0  16   48.30    1.56
   3   0  16   47.69    1.54
   3   0  17   45.13    1.45
   3   0  17   44.30    1.27
   3   0  18   22.27    0.88
   3   0  18   19.50    0.80
   3   1 -16    6.20    0.36
   3   1 -15   11.87    0.83
   3   1 -14   85.95    1.88
   3   1 -14   93.12    2.05
   3   1 -12   22.99    1.25
   3   1 -12   22.31    1.24
   3   1 -12   20.11    1.24
   3   1 -12   21.41    1.42
   3   1 -11  177.59    3.70
   3   1 -11  183.13    3.65
   3   1 -11  172.62    3.48
   3   1 -11  183.93    3.68
   3   1 -10   26.97    1.39
   3   1 -10   26.05    1.58
   3   1 -10   25.92    1.38
   3   1 -10   25.75    1.34
   3   1  -9    3.52    0.89
   3   1  -9    4.33    0.94
   3   1  -9    3.62    1.23
   3   1  -9    3.86    0.89
   3   1  -8  315.39    5.33
   3   1  -8  309.35    5.24
   3   1  -8  309.88    5.26
   3   1  -8  308.34    5.27
   3   1  -7    2.32    0.70
   3   1  -7    3.79    0.75
   3   1  -7    2.29    0.99
   3   1  -7    2.91    0.74
   3   1  -6  409.40    6.32
   3   1  -5    0.62    0.43
   3   1  -4  282.50    4.11
   3   1  -4  266.05    5.15
   3   1  -3  220.05    3.43
   3   1  -3  213.35    4.54
   3   1  -3  212.97    3.37
   3   1  -2   10.17    0.54
   3   1  -2    9.88    1.08
   3   1  -2   10.11    0.56
   3   1  -1   65.51    1.29
   3   1  -1   63.30    2.21
   3   1  -1   64.15    1.36
   3   1   0  344.58    5.02
   3   1   0  354.83    6.33
   3   1   1    2.51    0.57
   3   1   1    2.47    0.95
   3   1   2  595.54    8.54
   3   1   2  663.84   10.04
   3   1   3    3.97    0.57
   3   1   3    2.78    0.93
   3   1   4  105.90    2.84
   3   1   4  104.41    1.86
   3   1   5  672.84   10.31
   3   1   5  665.08    8.93
   3   1   6  711.88   11.07
   3   1   6  700.91    9.72
   3   1   6  662.70    9.81
   3   1   6  661.20   10.05
   3   1   6  729.14    9.79
   3   1   7  466.35    8.04
   3   1   7  461.33    6.87
   3   1   7  471.68    7.11
   3   1   7  477.24    7.15
   3   1   8  240.15    4.01
   3   1   8  237.37    4.03
   3   1   8  248.61    3.91
   3   1   9  420.37    6.00
   3   1   9  394.90    5.68
   3   1   9  370.89    5.80
   3   1   9  371.60    5.98
   3   1   9  341.61    5.81
   3   1   9  330.66    5.80
   3   1  10    4.50    0.67
   3   1  10    5.88    0.66
   3   1  10    5.69    0.69
   3   1  10    4.46    0.87
   3   1  10    5.58    0.88
   3   1  10    4.83    0.71
   3   1  10    5.61    0.78
   3   1  11  190.32    3.60
   3   1  11  210.68    3.97
   3   1  11  210.34    3.85
   3   1  11  188.66    3.73
   3   1  11  195.28    3.40
   3   1  11  224.45    3.78
   3   1  12    0.31    0.89
   3   1  12    0.52    0.92
   3   1  12    1.11    0.73
   3   1  12    0.68    0.64
   3   1  12    0.77    0.63
   3   1  13  133.27    2.67
   3   1  13  144.64    3.18
   3   1  13  150.33    3.06
   3   1  13  137.21    2.95
   3   1  14   19.87    1.05
   3   1  14   19.82    1.22
   3   1  14   24.00    1.22
   3   1  14   23.00    1.19
   3   1  14   21.57    1.33
   3   1  15   19.39    1.13
   3   1  15   22.28    1.17
   3   1  15   20.14    1.09
   3   1  15   22.57    1.23
   3   1  16   11.91    0.84
   3   1  16   12.82    0.99
   3   1  16   11.52    0.84
   3   1  16   14.69    0.96
   3   1  17    5.90    0.55
   3   1  17    7.00    0.84
   3   1  18    9.70    0.68
   3   1  18   11.89    0.82
   3   1  19   19.87    0.60
   3   2 -14   26.22    1.22
   3   2 -14   25.73    1.05
   3   2 -13   87.01    2.19
   3   2 -13   87.26    2.04
   3   2 -12    5.09    1.02
   3   2 -12    4.58    1.15
   3   2 -11   75.18    2.16
   3   2 -11   72.41    2.08
   3   2 -11   70.59    2.06
   3   2 -11   73.53    2.21
   3   2 -10    3.23    0.89
   3   2 -10    1.96    0.91
   3   2 -10    2.14    1.04
   3   2 -10    3.05    1.12
   3   2 -10    2.72    1.26
   3   2  -9  136.26    3.00
   3   2  -9  133.84    2.94
   3   2  -9  135.58    3.00
   3   2  -8   12.72    1.01
   3   2  -8   12.74    1.02
   3   2  -8   14.16    1.01
   3   2  -8   15.93    1.30
   3   2  -7  547.15    8.33
   3   2  -7  531.50    8.20
   3   2  -7  544.48    8.26
   3   2  -7  539.58    8.28
   3   2  -6    1.44    0.64
   3   2  -6    1.37    0.89
   3   2  -6    1.60    0.67
   3   2  -6    0.73    0.44
   3   2  -5   83.24    1.74
   3   2  -5   79.36    3.01
   3   2  -4   36.56    1.01
   3   2  -4   34.84    1.62
   3   2  -3  471.53    8.24
   3   2  -3  451.62    6.87
   3   2  -2   10.57    0.57
   3   2  -2    8.04    0.65
   3   2  -2    9.25    1.09
   3   2  -1 1248.80   16.86
   3   2  -1 1186.05   16.85
   3   2   0  687.14    9.82
   3   2   0  766.11   11.43
   3   2   1   75.72    1.53
   3   2   1   83.15    2.57
   3   2   2  194.03    3.10
   3   2   2  204.87    4.34
   3   2   3  502.87    7.30
   3   2   3  554.15    8.80
   3   2   4  126.28    2.20
   3   2   4  132.28    3.32
   3   2   4  130.13    2.66
   3   2   5   22.67    1.06
   3   2   5   23.52    0.84
   3   2   5   24.52    1.46
   3   2   6  412.18    6.20
   3   2   6  389.70    6.79
   3   2   6  414.63    6.07
   3   2   6  435.68    6.12
   3   2   6  440.25    7.47
   3   2   7    1.82    0.65
   3   2   7    2.50    0.76
   3   2   7    1.68    0.37
   3   2   7    1.79    0.53
   3   2   7    1.60    0.37
   3   2   7    2.34    0.55
   3   2   8   17.17    0.84
   3   2   8   17.60    0.70
   3   2   9   18.55    0.83
   3   2   9   18.97    0.98
   3   2  10  166.14    2.89
   3   2  10  169.57    3.13
   3   2  10  169.27    3.10
   3   2  10  161.78    3.22
   3   2  11   59.44    1.58
   3   2  11   60.14    1.77
   3   2  11   62.12    1.87
   3   2  11   55.79    1.71
   3   2  11   63.46    1.71
   3   2  11   58.23    1.49
   3   2  12  218.63    4.20
   3   2  12  214.82    4.03
   3   2  12  202.26    3.98
   3   2  12  204.86    3.58
   3   2  12  217.03    3.87
   3   2  13    7.01    1.13
   3   2  13    6.85    1.03
   3   2  13    5.83    0.79
   3   2  13    6.69    0.81
   3   2  14  156.98    3.31
   3   2  14  155.36    2.95
   3   2  14  158.17    3.38
   3   2  14  150.63    3.14
   3   2  14  152.67    3.15
   3   2  15   10.68    0.89
   3   2  15   12.41    0.94
   3   2  15   13.33    1.10
   3   2  16   99.50    2.17
   3   2  16  108.38    2.42
   3   2  17    4.88    0.83
   3   2  17    5.54    0.74
   3   2  18   17.09    0.86
   3   2  19    3.23    0.31
   3   2  19    4.32    0.38
   3   3 -15   28.08    0.85
   3   3 -14   55.45    1.56
   3   3 -14   55.99    1.49
   3   3 -13    3.63    0.90
   3   3 -13    3.26    1.03
   3   3 -12  101.94    2.48
   3   3 -11    0.93    1.01
   3   3 -11    0.75    1.20
   3   3 -11    0.60    1.10
   3   3 -10  120.16    2.74
   3   3 -10  129.84    2.97
   3   3 -10  128.33    2.86
   3   3  -9   12.76    1.28
   3   3  -9   12.85    1.26
   3   3  -9   12.79    1.35
   3   3  -9   15.20    1.13
   3   3  -9   15.05    1.11
   3   3  -8  502.64    7.94
   3   3  -8  505.69    7.91
   3   3  -8  513.02    7.98
   3   3  -8  527.78    8.13
   3   3  -8  517.49    8.02
   3   3  -7    4.95    0.79
   3   3  -7    4.10    0.99
   3   3  -7    4.41    1.14
   3   3  -7    4.05    1.07
   3   3  -7    4.69    1.43
   3   3  -7    4.84    0.81
   3   3  -6   91.66    2.10
   3   3  -6   83.88    2.05
   3   3  -6   84.27    2.01
   3   3  -6   85.60    2.07
   3   3  -6   79.88    3.25
   3   3  -6   85.49    1.83
   3   3  -6   88.75    2.03
   3   3  -5    5.51    0.54
   3   3  -5    6.32    1.26
   3   3  -5    5.88    0.91
   3   3  -4  201.03    4.70
   3   3  -4  206.95    3.15
   3   3  -3   33.08    1.02
   3   3  -3   34.52    1.74
   3   3  -2  138.02    2.46
   3   3  -2  147.14    3.68
   3   3  -2  150.04    2.50
   3   3  -2  148.69    3.66
   3   3  -1   12.86    0.75
   3   3  -1   15.50    1.37
   3   3   0  446.81    6.55
   3   3   0  483.80    8.14
   3   3   1    7.11    0.64
   3   3   1    7.64    1.12
   3   3   1    7.69    0.50
   3   3   2  265.53    4.17
   3   3   2  281.59    4.16
   3   3   3  180.01    4.07
   3   3   3  173.51    2.74
   3   3   4  137.10    2.38
   3   3   4  140.36    3.10
   3   3   5  101.50    2.60
   3   3   5  103.86    1.91
   3   3   5  106.81    3.03
   3   3   6  247.77    4.93
   3   3   6  257.63    3.96
   3   3   6  253.80    4.06
   3   3   7  228.19    3.75
   3   3   7  227.03    3.49
   3   3   7  219.32    4.77
   3   3   7  224.85    3.72
   3   3   8  241.93    4.08
   3   3   8  280.04    4.43
   3   3   8  295.07    4.44
   3   3   8  253.86    5.24
   3   3   8  267.17    5.67
   3   3   9  414.61    6.47
   3   3   9  460.90    6.48
   3   3   9  415.51    6.65
   3   3   9  412.74    6.56
   3   3   9  462.65    6.69
   3   3   9  432.64    6.50
   3   3   9  405.56    6.68
   3   3  10    5.02    0.78
   3   3  10    6.15    0.74
   3   3  10    6.69    0.84
   3   3  10    5.83    0.75
   3   3  10    6.60    0.67
   3   3  11  410.84    6.41
   3   3  11  391.36    6.21
   3   3  11  418.92    6.45
   3   3  11  376.57    6.44
   3   3  12    1.41    0.62
   3   3  12    1.62    0.66
   3   3  12    1.71    0.63
   3   3  12    0.90    0.90
   3   3  12    0.75    0.73
   3   3  12    0.81    0.70
   3   3  13  226.70    3.87
   3   3  13  239.46    4.48
   3   3  13  228.23    4.24
   3   3  14    0.48    0.72
   3   3  14    1.30    0.78
   3   3  14    0.90    0.83
   3   3  14    0.64    0.97
   3   3  15  122.67    2.50
   3   3  15  127.56    2.80
   3   3  15  107.23    2.50
   3   3  15  114.71    2.74
   3   3  16    0.46    0.75
   3   3  16    1.09    0.64
   3   3  17   65.38    1.67
   3   3  18    1.10    0.56
   3   3  19   28.65    0.73
   3   3  19   28.56    0.73
   3   4 -15    4.43    0.42
   3   4 -14   25.04    1.01
   3   4 -13   18.95    1.09
   3   4 -13   18.75    1.19
   3   4 -11  120.18    2.82
   3   4 -11  113.39    2.62
   3   4 -11  122.05    2.74
   3   4 -10   12.09    1.30
   3   4 -10   13.36    1.43
   3   4 -10   13.19    1.35
   3   4  -9   15.81    1.47
   3   4  -9   16.58    1.40
   3   4  -9   16.80    1.43
   3   4  -8   33.24    1.57
   3   4  -8   32.46    1.59
   3   4  -8   31.21    1.52
   3   4  -8   28.42    2.46
   3   4  -7  231.96    4.13
   3   4  -7  233.32    4.16
   3   4  -7  223.88    4.08
   3   4  -7  221.81    6.12
   3   4  -7  231.04    3.87
   3   4  -6    1.75    1.00
   3   4  -6    1.85    0.93
   3   4  -6    1.74    0.98
   3   4  -6    1.94    1.22
   3   4  -6    1.71    0.49
   3   4  -6    1.78    0.53
   3   4  -5  294.52    6.65
   3   4  -5  288.75    4.60
   3   4  -5  284.47    4.68
   3   4  -5  293.54    4.75
   3   4  -5  291.33    4.70
   3   4  -4  165.69    4.41
   3   4  -4  170.01    2.88
   3   4  -3   55.07    1.31
   3   4  -3   56.12    2.27
   3   4  -2   13.34    1.30
   3   4  -2   12.51    0.74
   3   4  -2   12.96    1.33
   3   4  -1  637.70   10.35
   3   4  -1  623.11    8.99
   3   4   0    7.69    0.97
   3   4   0    6.82    0.67
   3   4   0    6.26    1.19
   3   4   1  769.33   10.74
   3   4   1  757.87   10.74
   3   4   1  786.14   12.57
   3   4   2  113.36    2.01
   3   4   2  110.03    2.04
   3   4   2  113.66    3.28
   3   4   3  921.42   12.73
   3   4   3  954.96   13.98
   3   4   3  922.10   14.46
   3   4   4  372.19    5.59
   3   4   4  390.31    7.24
   3   4   4  390.78    6.79
   3   4   5   25.05    1.45
   3   4   5   24.47    0.89
   3   4   5   23.57    1.60
   3   4   6  584.01    9.97
   3   4   6  596.49    8.53
   3   4   6  608.76   10.29
   3   4   7   80.12    2.74
   3   4   7   87.63    1.72
   3   4   7   83.88    2.77
   3   4   7   80.68    1.54
   3   4   8  139.08    2.58
   3   4   8  154.11    2.48
   3   4   8  120.68    3.36
   3   4   9   56.52    1.39
   3   4   9   57.62    1.43
   3   4   9   49.66    2.53
   3   4   9   57.38    1.60
   3   4   9   53.39    1.52
   3   4   9   57.08    1.47
   3   4   9   50.75    1.53
   3   4  10  135.95    2.74
   3   4  10  128.08    2.68
   3   4  10  126.78    2.72
   3   4  10  128.67    2.47
   3   4  11    9.95    0.85
   3   4  11   11.16    1.10
   3   4  11   11.95    1.03
   3   4  11   11.38    0.96
   3   4  11   10.54    0.81
   3   4  12   49.16    1.39
   3   4  12   46.66    1.49
   3   4  12   48.66    1.64
   3   4  12   45.02    1.72
   3   4  12   47.58    1.65
   3   4  12   46.25    1.43
   3   4  13  107.43    2.20
   3   4  13   95.68    2.27
   3   4  13  102.43    2.54
   3   4  13  100.64    2.51
   3   4  14  158.87    2.90
   3   4  14  134.55    2.89
   3   4  14  158.60    3.29
   3   4  14  155.15    3.38
   3   4  14  142.96    3.08
   3   4  15   10.83    0.91
   3   4  15    9.17    1.05
   3   4  15    8.40    0.91
   3   4  16  123.06    2.51
   3   4  16  136.73    2.80
   3   4  17    3.66    0.54
   3   4  17    4.47    0.70
   3   4  18    8.87    0.77
   3   4  19   -0.02    0.27
   3   5 -15   48.35    0.95
   3   5 -14   21.32    0.82
   3   5 -14   21.61    0.88
   3   5 -14   20.32    0.90
   3   5 -13   26.53    1.15
   3   5 -12    2.59    0.92
   3   5 -12    2.45    1.01
   3   5 -12    2.54    0.95
   3   5 -11   27.86    1.39
   3   5 -11   27.80    1.43
   3   5 -11   25.61    1.43
   3   5 -10    2.33    1.14
   3   5 -10    2.74    1.17
   3   5 -10    2.77    1.21
   3   5  -9   23.13    2.33
   3   5  -9   22.42    1.46
   3   5  -9   23.26    1.55
   3   5  -9   23.89    1.48
   3   5  -8    3.17    1.60
   3   5  -8    3.59    1.20
   3   5  -8    2.17    1.22
   3   5  -8    2.93    1.17
   3   5  -7  125.89    4.54
   3   5  -7  127.90    2.48
   3   5  -7  124.38    2.80
   3   5  -7  123.84    2.75
   3   5  -7  125.70    2.79
   3   5  -6  206.04    5.76
   3   5  -6  207.62    3.59
   3   5  -6  206.33    3.79
   3   5  -6  206.11    3.81
   3   5  -6  209.31    3.79
   3   5  -5   54.30    1.30
   3   5  -5   64.96    2.90
   3   5  -5   61.82    1.48
   3   5  -5   53.33    1.65
   3   5  -5   56.96    1.69
   3   5  -5   56.07    1.65
   3   5  -4  468.16    6.88
   3   5  -4  462.95    9.09
   3   5  -4  444.21    6.91
   3   5  -4  462.55    6.98
   3   5  -4  458.35    6.93
   3   5  -3   59.94    2.56
   3   5  -3   52.49    1.32
   3   5  -2  567.68    8.19
   3   5  -1    0.28    0.87
   3   5  -1    0.51    0.64
   3   5  -1    0.44    0.95
   3   5   0  445.59    7.49
   3   5   0  421.47    6.29
   3   5   1    1.04    0.48
   3   5   1    1.22    0.64
   3   5   2  701.26   10.03
   3   5   2  710.49   10.02
   3   5   3    9.62    0.65
   3   5   3    9.07    1.15
   3   5   3    9.18    0.75
   3   5   4 1068.51   15.87
   3   5   4 1006.53   14.19
   3   5   5  101.51    3.03
   3   5   5   97.18    1.92
   3   5   5   96.52    3.17
   3   5   6  223.49    5.13
   3   5   6  226.93    3.66
   3   5   7  157.65    2.78
   3   5   8  350.33    5.31
   3   5   8  301.60    6.98
   3   5   9  140.55    2.61
   3   5   9  135.31    4.31
   3   5   9  147.11    2.87
   3   5   9  138.97    2.74
   3   5   9  144.99    2.70
   3   5   9  141.05    2.62
   3   5  10  212.49    3.77
   3   5  10  223.89    3.86
   3   5  10  194.68    3.49
   3   5  10  204.86    5.69
   3   5  11  353.00    5.83
   3   5  11  340.12    5.52
   3   5  12   80.27    2.13
   3   5  12   83.51    2.23
   3   5  12   81.17    1.84
   3   5  12   76.38    1.99
   3   5  12   74.27    1.86
   3   5  13  177.54    3.06
   3   5  13  149.46    3.11
   3   5  13  165.72    3.32
   3   5  13  160.82    3.41
   3   5  14   11.89    0.89
   3   5  14    9.59    0.77
   3   5  14   11.16    1.17
   3   5  14    9.41    1.02
   3   5  15  201.41    3.50
   3   5  15  179.82    3.76
   3   5  16    3.77    0.80
   3   5  16    4.73    0.83
   3   5  16    4.36    0.68
   3   5  17   50.83    1.24
   3   5  17   61.10    1.54
   3   5  18    0.93    0.54
   3   5  18    0.28    0.46
   3   5  19   13.83    0.53
   3   6 -14   71.47    1.55
   3   6 -14   70.37    1.43
   3   6 -13    6.84    0.69
   3   6 -13    6.70    0.84
   3   6 -12   67.89    1.81
   3   6 -12   65.61    1.76
   3   6 -10   59.92    1.93
   3   6 -10   59.66    1.93
   3   6 -10   59.71    1.92
   3   6  -9   34.23    1.62
   3   6  -9   31.64    1.61
   3   6  -9   35.23    1.62
   3   6  -9   32.13    2.63
   3   6  -8  243.85    4.38
   3   6  -8  233.36    4.37
   3   6  -8  238.14    4.37
   3   6  -8  231.25    6.71
   3   6  -7  105.00    2.52
   3   6  -7  106.26    2.52
   3   6  -7  101.51    2.52
   3   6  -7   93.07    4.06
   3   6  -7   92.35    2.08
   3   6  -6  188.23    3.57
   3   6  -6  184.06    3.57
   3   6  -6  182.12    3.55
   3   6  -6  191.79    3.36
   3   6  -5  169.90    3.26
   3   6  -5  171.04    3.27
   3   6  -5  170.85    3.26
   3   6  -5  168.53    3.07
   3   6  -5  171.42    5.12
   3   6  -4   22.77    1.21
   3   6  -4   23.20    1.24
   3   6  -4   23.66    1.23
   3   6  -4   22.96    1.66
   3   6  -3   30.30    1.22
   3   6  -3   29.97    1.25
   3   6  -3   28.90    2.09
   3   6  -3   27.69    0.99
   3   6  -3   29.20    1.89
   3   6  -2    9.11    0.77
   3   6  -1  454.69    8.34
   3   6  -1  458.38    6.78
   3   6   0    6.05    0.97
   3   6   0    5.92    0.73
   3   6   1  306.55    5.70
   3   6   1  317.68    4.87
   3   6   1  317.22    4.89
   3   6   2    0.97    0.50
   3   6   2    0.91    0.69
   3   6   3  909.12   12.70
   3   6   3  887.26   12.67
   3   6   4  365.21    5.57
   3   6   5  204.14    3.42
   3   6   6  251.53    4.06
   3   6   7   88.75    2.02
   3   6   7   97.53    2.01
   3   6   7   88.21    3.25
   3   6   7   93.48    1.93
   3   6   7   89.12    3.21
   3   6   8  215.34    3.62
   3   6   8  202.93    3.50
   3   6   8  200.71    5.44
   3   6   8  209.56    3.55
   3   6   9  271.12    4.33
   3   6   9  264.53    4.32
   3   6   9  266.88    4.43
   3   6   9  279.96    4.42
   3   6   9  268.71    6.59
   3   6  10   61.49    1.82
   3   6  10   60.03    1.75
   3   6  10   56.86    1.64
   3   6  10   53.10    2.91
   3   6  10   59.45    1.51
   3   6  10   51.13    1.52
   3   6  11   31.59    1.39
   3   6  11   29.79    1.38
   3   6  11   30.37    2.30
   3   6  11   28.92    1.16
   3   6  11   28.09    1.07
   3   6  12   75.57    1.87
   3   6  12   84.53    1.87
   3   6  12   75.05    2.00
   3   6  12   85.03    2.25
   3   6  12   81.56    2.14
   3   6  13   89.02    2.14
   3   6  13   93.76    2.34
   3   6  14  147.23    2.99
   3   6  14  154.15    3.27
   3   6  15   31.90    1.22
   3   6  16  152.11    2.90
   3   6  16  175.77    3.25
   3   6  17    2.64    0.64
   3   6  17    2.10    0.46
   3   6  18   54.49    1.23
   3   7 -14    0.93    0.33
   3   7 -13   24.94    0.99
   3   7 -13   23.48    0.89
   3   7 -12   37.42    1.34
   3   7 -12   36.57    1.30
   3   7 -12   36.33    1.22
   3   7 -11   42.50    1.54
   3   7 -11   42.41    1.54
   3   7 -10   20.01    1.33
   3   7 -10   19.18    1.32
   3   7  -9  108.46    2.62
   3   7  -9  109.91    2.63
   3   7  -8   10.86    1.96
   3   7  -8   10.18    0.68
   3   7  -8   14.26    1.39
   3   7  -8   14.60    1.38
   3   7  -7  487.65   10.51
   3   7  -7  472.94    7.29
   3   7  -7  480.33    7.58
   3   7  -7  480.98    7.58
   3   7  -6  425.80    6.62
   3   7  -6  417.13    9.46
   3   7  -6  426.56    6.84
   3   7  -6  430.78    6.84
   3   7  -5   51.50    1.43
   3   7  -5   52.42    2.97
   3   7  -5   48.97    1.71
   3   7  -5   50.86    1.76
   3   7  -4  307.31    7.44
   3   7  -4  308.96    5.04
   3   7  -4  309.21    5.04
   3   7  -3   10.52    1.74
   3   7  -3    9.78    1.01
   3   7  -3    8.87    1.04
   3   7  -3    8.77    0.77
   3   7  -3    8.24    1.34
   3   7  -3    9.13    0.79
   3   7  -2   37.57    2.56
   3   7  -2   37.44    1.33
   3   7  -2   38.29    1.39
   3   7  -2   35.91    1.18
   3   7  -1    7.08    0.98
   3   7  -1    4.74    0.76
   3   7   0  145.17    2.68
   3   7   0  138.18    3.64
   3   7   0  142.51    2.54
   3   7   1    1.86    0.75
   3   7   1    0.81    0.69
   3   7   1    1.42    0.49
   3   7   2  365.39    5.63
   3   7   2  350.26    5.50
   3   7   3  203.43    3.58
   3   7   3  211.50    5.08
   3   7   3  204.01    3.49
   3   7   4   38.88    2.12
   3   7   4   35.58    1.26
   3   7   4   36.17    1.17
   3   7   5   53.75    2.50
   3   7   5   49.21    1.42
   3   7   6  417.35    8.42
   3   7   6  417.16    6.30
   3   7   6  404.98    6.22
   3   7   7   32.43    1.00
   3   7   7   32.00    1.25
   3   7   7   28.78    1.28
   3   7   7   31.43    1.19
   3   7   7   29.08    2.07
   3   7   7   28.85    1.12
   3   7   8  300.42    4.64
   3   7   8  276.22    4.66
   3   7   8  300.85    7.06
   3   7   8  304.30    4.73
   3   7   8  272.30    6.59
   3   7   8  269.73    4.67
   3   7   8  309.51    4.81
   3   7   8  303.22    4.89
   3   7   9    1.62    0.76
   3   7   9    1.36    0.73
   3   7   9    1.20    0.55
   3   7   9    0.89    1.10
   3   7  10  190.24    3.62
   3   7  10  181.74    3.47
   3   7  10  189.84    3.41
   3   7  10  183.42    3.22
   3   7  10  184.58    5.55
   3   7  11   13.99    0.97
   3   7  11   14.86    0.89
   3   7  11   12.22    1.85
   3   7  11   15.13    1.20
   3   7  11   16.49    1.27
   3   7  11   17.05    0.92
   3   7  12  156.27    3.20
   3   7  12  155.79    3.04
   3   7  12  170.49    3.45
   3   7  12  176.06    3.42
   3   7  12  181.81    3.07
   3   7  12  163.02    3.26
   3   7  12  163.65    5.29
   3   7  13  418.51    6.19
   3   7  13  426.22    6.67
   3   7  14    4.46    0.72
   3   7  14    3.51    0.89
   3   7  15  108.63    2.40
   3   7  16    1.01    0.58
   3   7  16    1.16    0.71
   3   7  17   21.04    0.94
   3   7  17   20.27    0.84
   3   7  18    1.45    0.39
   3   8 -13    4.37    0.55
   3   8 -13    5.32    0.50
   3   8 -12   10.50    0.81
   3   8 -12    9.48    0.71
   3   8 -11   32.12    1.34
   3   8 -11   32.17    1.36
   3   8 -11   32.96    1.20
   3   8 -10    8.93    0.89
   3   8  -9    1.86    1.09
   3   8  -9    1.22    1.13
   3   8  -9    0.54    1.32
   3   8  -9    2.18    0.81
   3   8  -8  145.78    3.16
   3   8  -8  151.68    3.19
   3   8  -8  149.46    5.28
   3   8  -8  143.80    3.07
   3   8  -7  206.60    3.97
   3   8  -7  206.60    3.97
   3   8  -7  206.44    3.91
   3   8  -6    5.49    1.29
   3   8  -6    6.37    1.23
   3   8  -6    7.99    1.74
   3   8  -6    7.34    0.67
   3   8  -6    6.05    0.93
   3   8  -5  229.21    4.17
   3   8  -5  231.98    4.16
   3   8  -5  218.59    3.90
   3   8  -5  213.90    6.36
   3   8  -5  226.71    4.10
   3   8  -4   21.56    2.20
   3   8  -4   20.46    1.30
   3   8  -4   21.06    1.38
   3   8  -4   21.24    1.81
   3   8  -4   19.33    1.05
   3   8  -3   18.85    2.40
   3   8  -3   19.93    1.24
   3   8  -3   19.92    1.28
   3   8  -3   15.85    0.93
   3   8  -3   16.40    1.72
   3   8  -3   18.18    1.00
   3   8  -2   29.45    3.04
   3   8  -2   25.96    1.07
   3   8  -2   27.29    1.32
   3   8  -2   27.03    1.13
   3   8  -1   87.46    2.00
   3   8  -1   89.29    3.56
   3   8  -1   85.20    1.86
   3   8   0  176.66    3.26
   3   8   1  156.39    3.01
   3   8   1  150.09    2.79
   3   8   2   52.94    1.72
   3   8   2   47.86    1.35
   3   8   3  400.29    6.28
   3   8   3  387.31    6.17
   3   8   4   26.39    1.28
   3   8   4   27.50    2.00
   3   8   4   28.23    1.10
   3   8   4   29.88    1.29
   3   8   5  135.25    2.64
   3   8   5  131.73    2.70
   3   8   6   28.18    1.32
   3   8   6   29.50    1.23
   3   8   6   27.20    1.19
   3   8   6   29.63    2.17
   3   8   7  186.91    3.37
   3   8   7  179.81    3.29
   3   8   7  188.04    3.28
   3   8   7  186.41    3.34
   3   8   7  188.13    5.34
   3   8   7  180.26    3.28
   3   8   8    5.85    0.61
   3   8   8    5.74    0.67
   3   8   8    5.76    1.39
   3   8   8    6.33    0.80
   3   8   8    5.19    1.30
   3   8   8    6.45    0.82
   3   8   8    6.34    1.00
   3   8   9   34.19    1.15
   3   8   9   37.01    2.51
   3   8   9   35.18    1.34
   3   8   9   39.41    1.34
   3   8   9   40.15    1.60
   3   8  10   13.78    1.06
   3   8  10   16.61    1.02
   3   8  10   13.67    0.78
   3   8  10   14.50    0.92
   3   8  10   17.29    1.95
   3   8  11    6.18    0.76
   3   8  11    7.33    0.67
   3   8  11    7.42    1.58
   3   8  11    7.13    1.01
   3   8  11    7.50    1.00
   3   8  11    8.24    0.70
   3   8  12   27.54    1.20
   3   8  12   27.27    1.05
   3   8  12   31.45    1.40
   3   8  12   32.14    1.43
   3   8  12   32.38    1.08
   3   8  12   27.51    1.19
   3   8  12   30.09    2.38
   3   8  13   86.58    1.88
   3   8  13   81.98    2.15
   3   8  13   83.24    2.25
   3   8  14   68.97    1.70
   3   8  15   14.76    0.95
   3   8  16   40.45    1.36
   3   8  16   34.21    1.10
   3   8  17    8.07    0.66
   3   8  17    7.70    0.67
   3   8  18   19.42    0.62
   3   9 -13   37.85    0.82
   3   9 -12    7.59    0.63
   3   9 -12    8.71    0.61
   3   9 -11   43.34    1.27
   3   9 -10   14.97    0.93
   3   9 -10   14.89    1.13
   3   9 -10   15.25    1.19
   3   9  -9   39.26    1.40
   3   9  -8  127.66    2.75
   3   9  -8  126.88    2.84
   3   9  -8  127.69    2.88
   3   9  -7   48.56    1.65
   3   9  -7   52.32    3.23
   3   9  -7   51.20    1.40
   3   9  -7   49.78    1.87
   3   9  -7   51.17    1.92
   3   9  -6   37.23    1.48
   3   9  -6   33.42    2.67
   3   9  -6   37.85    1.69
   3   9  -6   38.52    1.76
   3   9  -5   70.16    1.97
   3   9  -5   73.24    1.80
   3   9  -5   75.87    3.73
   3   9  -5   73.42    2.16
   3   9  -5   71.81    2.19
   3   9  -4  131.71    2.80
   3   9  -4  132.82    2.92
   3   9  -4  136.70    2.97
   3   9  -3    3.06    0.77
   3   9  -3    3.92    1.72
   3   9  -3    4.34    1.18
   3   9  -3    4.25    0.80
   3   9  -2  119.59    2.54
   3   9  -2  122.88    2.56
   3   9  -1   -0.04    1.17
   3   9  -1    0.85    0.63
   3   9  -1    0.73    0.79
   3   9   0   59.41    1.56
   3   9   0   57.43    1.74
   3   9   1  134.90    2.58
   3   9   1  129.31    2.55
   3   9   1  130.85    2.88
   3   9   2  354.49    5.72
   3   9   2  361.14    5.81
   3   9   2  372.33    5.84
   3   9   3    8.49    0.76
   3   9   3    7.78    0.72
   3   9   3    8.00    1.63
   3   9   3    7.46    0.74
   3   9   3    7.72    1.15
   3   9   4  141.86    2.69
   3   9   4  143.61    3.16
   3   9   4  138.29    2.67
   3   9   4  148.55    2.86
   3   9   4  145.21    2.83
   3   9   4  133.03    2.66
   3   9   5    2.84    0.62
   3   9   5    3.11    0.49
   3   9   5    2.99    1.25
   3   9   5    2.27    0.94
   3   9   5    2.65    0.61
   3   9   5    2.33    0.80
   3   9   5    2.48    1.07
   3   9   5    3.24    0.69
   3   9   6  247.81    4.20
   3   9   6  241.44    4.13
   3   9   6  254.70    6.54
   3   9   6  233.36    4.23
   3   9   6  239.54    3.92
   3   9   6  250.17    4.22
   3   9   6  252.55    4.21
   3   9   7   10.66    0.66
   3   9   7   10.29    0.80
   3   9   7    9.95    0.78
   3   9   7    9.94    1.02
   3   9   7   10.25    1.20
   3   9   7   11.43    0.97
   3   9   7   13.71    1.77
   3   9   7   11.63    0.96
   3   9   8  118.92    2.61
   3   9   8  116.87    2.46
   3   9   8  117.95    4.38
   3   9   8  116.36    2.46
   3   9   9   95.15    2.10
   3   9   9  121.82    2.66
   3   9   9  118.04    2.43
   3   9   9  117.74    4.47
   3   9   9   97.01    3.88
   3   9  10   29.38    1.24
   3   9  10   31.83    1.04
   3   9  10   30.39    1.34
   3   9  10   33.75    1.30
   3   9  11  134.69    2.84
   3   9  11  138.37    2.52
   3   9  11  137.90    3.01
   3   9  11  136.06    2.90
   3   9  11  140.36    4.99
   3   9  12  123.22    2.71
   3   9  12  135.97    2.46
   3   9  12  120.33    2.65
   3   9  12  132.29    2.84
   3   9  12  136.36    2.89
   3   9  12  126.69    4.72
   3   9  13   62.36    1.87
   3   9  13   62.35    1.82
   3   9  13   65.66    1.55
   3   9  15   29.11    1.14
   3   9  16   14.44    0.93
   3   9  16   12.85    0.70
   3   9  17   25.84    0.91
   3   9  17   28.80    0.90
   3  10 -12   21.73    0.67
   3  10 -11    2.73    0.54
   3  10 -10   39.32    1.23
   3  10  -8  141.14    2.89
   3  10  -8  143.39    3.02
   3  10  -7  188.34    3.50
   3  10  -7  170.25    5.58
   3  10  -7  169.33    3.12
   3  10  -7  186.13    3.61
   3  10  -6   36.66    1.46
   3  10  -6   36.76    2.71
   3  10  -6   37.06    1.21
   3  10  -6   36.54    1.74
   3  10  -5   30.52    1.33
   3  10  -5   28.14    1.10
   3  10  -5   25.94    2.46
   3  10  -5   30.83    1.67
   3  10  -4    4.43    1.63
   3  10  -4    4.01    0.85
   3  10  -3   21.74    2.27
   3  10  -3   22.04    1.17
   3  10  -3   21.86    1.13
   3  10  -2   11.62    1.87
   3  10  -2   10.74    0.93
   3  10  -2   11.09    1.00
   3  10  -1  204.49    3.69
   3  10  -1  198.36    3.75
   3  10   0    1.59    0.68
   3  10   0    2.41    0.97
   3  10   1  145.27    2.86
   3  10   1  147.47    3.23
   3  10   2   67.75    1.81
   3  10   2   67.41    1.77
   3  10   2   72.90    1.79
   3  10   2   70.56    2.03
   3  10   3  116.87    2.48
   3  10   3  114.23    2.44
   3  10   3  114.71    2.49
   3  10   3  116.88    2.61
   3  10   4   64.02    1.72
   3  10   4   64.35    1.72
   3  10   4   71.62    2.28
   3  10   4   70.96    3.33
   3  10   4   67.72    1.80
   3  10   4   66.15    1.93
   3  10   4   61.36    1.71
   3  10   5  224.44    3.90
   3  10   5  209.84    4.10
   3  10   5  227.83    6.29
   3  10   5  226.09    3.96
   3  10   5  220.00    3.92
   3  10   5  229.22    4.07
   3  10   5  219.89    3.88
   3  10   5  212.05    3.90
   3  10   6   32.35    2.49
   3  10   6   32.31    1.42
   3  10   6   31.14    1.24
   3  10   6   33.00    1.53
   3  10   6   32.13    1.40
   3  10   6   33.40    1.34
   3  10   7  267.71    4.49
   3  10   7  277.80    4.82
   3  10   7  294.50    4.85
   3  10   7  299.01    4.95
   3  10   7  306.64    7.63
   3  10   7  301.97    4.96
   3  10   7  294.57    4.91
   3  10   8    2.81    1.03
   3  10   8    3.10    1.42
   3  10   8    2.60    0.84
   3  10   8    3.22    0.84
   3  10   9  298.39    5.05
   3  10   9  284.53    7.56
   3  10   9  289.45    4.81
   3  10   9  280.34    4.77
   3  10  10   58.20    1.74
   3  10  10   61.72    3.36
   3  10  10   58.26    1.69
   3  10  11   89.66    2.22
   3  10  11  100.27    4.19
   3  10  11   95.85    2.41
   3  10  11   88.89    2.23
   3  10  12  106.28    2.44
   3  10  12  114.34    2.58
   3  10  12  110.16    2.52
   3  10  12  107.22    4.29
   3  10  14   22.24    1.06
   3  10  15   34.09    1.16
   3  10  16   13.38    0.64
   3  10  16   17.27    0.91
   3  10  17    8.42    0.55
   3  10  17   10.07    0.58
   3  11 -11    8.34    0.52
   3  11 -10    2.97    0.57
   3  11  -9   49.52    1.38
   3  11  -7   24.17    1.15
   3  11  -6   10.00    0.96
   3  11  -6    8.79    0.65
   3  11  -6   10.05    1.70
   3  11  -5   59.68    1.77
   3  11  -5   54.10    3.21
   3  11  -5   57.48    1.57
   3  11  -4   50.19    1.63
   3  11  -4   40.13    2.80
   3  11  -3   98.87    2.36
   3  11  -3   94.07    3.99
   3  11  -2  396.86    6.29
   3  11  -2  373.31    6.23
   3  11  -1  209.65    3.84
   3  11  -1  203.68    3.90
   3  11   0  205.52    3.75
   3  11   0  194.36    3.86
   3  11   1   10.31    0.91
   3  11   1    9.07    1.38
   3  11   1    9.66    1.24
   3  11   2   74.39    2.37
   3  11   2   77.43    2.01
   3  11   2   76.13    1.96
   3  11   2   70.98    1.84
   3  11   2   79.44    2.22
   3  11   3   39.29    1.97
   3  11   3   34.12    1.34
   3  11   3   34.22    1.33
   3  11   3   33.91    1.27
   3  11   3   35.36    1.67
   3  11   4  157.30    3.42
   3  11   4  149.12    3.03
   3  11   4  150.39    3.02
   3  11   4  146.01    3.03
   3  11   4  150.75    3.12
   3  11   5    1.44    1.36
   3  11   5    0.70    1.03
   3  11   5    0.63    0.73
   3  11   5    0.71    0.75
   3  11   5    0.61    0.92
   3  11   5    1.45    1.26
   3  11   5    1.16    0.70
   3  11   6  155.67    3.18
   3  11   6  163.65    3.26
   3  11   6  164.32    3.28
   3  11   6  163.91    3.33
   3  11   6  156.52    5.42
   3  11   6  161.31    3.33
   3  11   7   14.81    1.03
   3  11   7   16.51    1.26
   3  11   7   15.96    1.38
   3  11   7   18.98    2.14
   3  11   7   18.92    1.21
   3  11   7   17.41    1.10
   3  11   8   75.37    2.17
   3  11   8   71.28    3.66
   3  11   8   74.06    1.92
   3  11   9    1.59    1.10
   3  11   9    0.52    1.29
   3  11   9    0.82    0.77
   3  11   9    0.43    1.14
   3  11   9    1.14    0.75
   3  11  10   76.87    3.75
   3  11  10   72.66    1.86
   3  11  11    3.69    0.75
   3  11  11    3.15    1.39
   3  11  11    3.28    0.91
   3  11  12  212.00    3.98
   3  11  12  223.65    3.95
   3  11  13   10.21    0.89
   3  11  15   31.55    1.09
   3  11  15   52.56    1.33
   3  11  16   23.57    0.91
   3  12 -11    0.54    0.26
   3  12 -11    0.37    0.24
   3  12 -10    9.23    0.55
   3  12  -9    1.16    0.53
   3  12  -8   19.27    0.92
   3  12  -6   69.12    1.81
   3  12  -6   64.56    1.52
   3  12  -5   15.15    1.01
   3  12  -5   12.58    0.76
   3  12  -4   25.28    1.23
   3  12  -4   20.42    2.10
   3  12  -3   19.99    1.12
   3  12  -3   16.46    1.97
   3  12  -2  124.64    2.73
   3  12  -2  122.84    2.74
   3  12  -1  121.90    2.72
   3  12   0  420.83    6.77
   3  12   0  411.46    6.71
   3  12   1   17.84    1.16
   3  12   1   15.12    1.55
   3  12   1   15.29    1.09
   3  12   2  106.45    2.51
   3  12   2  109.91    2.65
   3  12   2  107.14    2.50
   3  12   3  166.09    3.25
   3  12   3  148.97    3.05
   3  12   3  165.22    3.23
   3  12   3  160.90    3.27
   3  12   3  141.87    2.99
   3  12   4   29.98    1.31
   3  12   4   26.13    1.31
   3  12   4   31.86    1.65
   3  12   4   27.62    1.30
   3  12   5  357.58    5.99
   3  12   5  356.11    5.96
   3  12   5  365.94    5.95
   3  12   5  364.15    5.92
   3  12   6   29.98    1.33
   3  12   6   28.36    1.31
   3  12   6   30.89    1.59
   3  12   6   30.46    1.44
   3  12   7  358.48    8.85
   3  12   7  364.53    5.95
   3  12   7  361.91    6.01
   3  12   7  356.11    5.89
   3  12   8   -0.05    1.31
   3  12   8   -0.10    0.85
   3  12   8    0.21    0.73
   3  12   8    0.37    0.70
   3  12   8    0.48    1.00
   3  12   9  108.34    4.47
   3  12   9  104.94    2.43
   3  12   9   99.05    2.25
   3  12   9  113.65    2.61
   3  12   9  114.85    2.64
   3  12  10   29.85    1.34
   3  12  10   25.85    2.34
   3  12  11   28.90    1.23
   3  12  11   38.15    1.45
   3  12  12   42.92    1.49
   3  12  12   57.54    1.68
   3  12  13  106.07    2.33
   3  12  13  138.61    2.65
   3  12  14    2.70    0.60
   3  12  15   12.64    0.64
   3  12  15   23.57    0.84
   3  12  16   23.06    0.77
   3  13 -10    1.83    0.29
   3  13 -10    1.49    0.43
   3  13 -10    1.52    0.27
   3  13  -9   31.66    0.88
   3  13  -8   -0.28    0.53
   3  13  -7   29.22    1.07
   3  13  -6    0.01    0.64
   3  13  -5   69.62    1.60
   3  13  -4   15.52    1.01
   3  13  -4   14.22    0.80
   3  13  -3   43.37    1.53
   3  13  -2   24.94    1.25
   3  13  -2   26.90    1.28
   3  13  -1   63.84    1.88
   3  13  -1   61.17    1.90
   3  13  -1   61.07    1.90
   3  13  -1   67.03    2.14
   3  13   0   62.05    1.86
   3  13   0   61.97    1.91
   3  13   0   60.71    1.95
   3  13   0   63.67    2.12
   3  13   1    2.09    0.85
   3  13   1    1.60    0.89
   3  13   1    2.55    1.03
   3  13   1    2.35    1.37
   3  13   2  346.63    5.86
   3  13   2  344.83    5.89
   3  13   2  357.75    6.04
   3  13   2  345.44    5.81
   3  13   3    8.09    0.99
   3  13   3    8.07    0.99
   3  13   3    7.83    1.37
   3  13   3    5.98    1.15
   3  13   4  135.21    3.04
   3  13   4  127.02    2.83
   3  13   4  125.25    2.83
   3  13   4  122.14    2.69
   3  13   4  127.29    2.86
   3  13   4  131.62    2.74
   3  13   5   72.71    2.06
   3  13   5   69.21    2.00
   3  13   5   73.55    2.15
   3  13   5   80.86    2.03
   3  13   5   83.45    2.27
   3  13   6  164.47    3.34
   3  13   6  154.52    3.18
   3  13   6  157.01    3.18
   3  13   6  160.49    3.25
   3  13   6  161.20    3.22
   3  13   7   11.31    1.12
   3  13   7    8.86    0.87
   3  13   7   10.72    0.91
   3  13   7    9.90    1.12
   3  13   8  140.35    5.13
   3  13   8  150.84    3.04
   3  13   8  146.88    3.05
   3  13   8  149.04    3.08
   3  13   9    1.56    1.01
   3  13   9    2.75    0.74
   3  13   9    2.42    0.81
   3  13  10   54.59    1.69
   3  13  10   63.87    1.82
   3  13  11    7.02    0.85
   3  13  11    7.31    0.77
   3  13  11    9.24    0.86
   3  13  12   41.84    1.36
   3  13  12   55.58    1.55
   3  13  13    1.97    0.57
   3  13  13    3.13    0.61
   3  13  14   18.86    0.84
   3  13  14   34.38    1.01
   3  13  15    2.11    0.51
   3  14  -9    1.64    0.27
   3  14  -9    1.74    0.26
   3  14  -8   90.82    1.73
   3  14  -8   94.90    1.73
   3  14  -7   -0.01    0.54
   3  14  -7    0.78    0.88
   3  14  -7    0.10    0.51
   3  14  -6   51.17    1.42
   3  14  -6   55.13    1.57
   3  14  -6   51.51    1.38
   3  14  -5    0.66    0.68
   3  14  -5    0.58    0.64
   3  14  -4   43.26    1.21
   3  14  -4   48.36    1.68
   3  14  -2   17.65    1.08
   3  14  -2   17.46    1.13
   3  14  -2   16.89    1.08
   3  14  -1   72.93    1.99
   3  14  -1   70.63    2.01
   3  14  -1   74.79    2.02
   3  14  -1   76.99    2.17
   3  14   0   15.23    1.07
   3  14   0   15.10    1.13
   3  14   0   15.63    1.19
   3  14   0   14.92    1.41
   3  14   1   12.73    1.07
   3  14   1   11.79    1.07
   3  14   1   13.48    1.17
   3  14   1   12.83    1.39
   3  14   2    5.04    0.91
   3  14   2    4.86    0.91
   3  14   2    3.56    1.09
   3  14   2    4.34    1.27
   3  14   3  227.22    4.24
   3  14   3  221.72    4.21
   3  14   3  224.98    4.14
   3  14   4    3.22    1.05
   3  14   4    3.38    1.21
   3  14   4    2.39    0.87
   3  14   5   52.84    1.75
   3  14   5   51.83    1.67
   3  14   5   52.34    1.79
   3  14   5   56.03    1.61
   3  14   6   21.31    1.19
   3  14   6   19.78    1.23
   3  14   6   22.70    1.07
   3  14   6   23.91    1.36
   3  14   7   49.33    1.67
   3  14   7   50.46    1.56
   3  14   8    8.22    0.82
   3  14   8    8.74    0.98
   3  14   9  103.11    2.34
   3  14  10    1.50    0.76
   3  14  10    1.53    0.63
   3  14  10    2.95    0.65
   3  14  11   54.92    1.56
   3  14  11   73.13    1.73
   3  14  12    2.75    0.58
   3  14  12    3.81    0.59
   3  14  13   28.13    0.94
   3  15  -7   21.67    0.70
   3  15  -7   23.88    0.81
   3  15  -7   22.24    0.69
   3  15  -6    0.71    0.49
   3  15  -6    0.52    0.74
   3  15  -6    0.40    0.47
   3  15  -5   24.03    0.96
   3  15  -5   25.76    1.14
   3  15  -5   24.76    0.93
   3  15  -4    0.55    0.63
   3  15  -4    0.36    0.33
   3  15  -4    0.91    0.96
   3  15  -4    0.35    0.61
   3  15  -3   41.80    1.36
   3  15  -3   41.78    1.33
   3  15  -3   41.80    1.49
   3  15  -2    1.06    0.70
   3  15  -2    1.27    0.73
   3  15  -2    0.31    0.68
   3  15  -2    0.84    1.08
   3  15  -1   25.36    1.20
   3  15  -1   27.75    1.43
   3  15   0   21.59    1.22
   3  15   1   68.92    1.95
   3  15   1   63.62    1.86
   3  15   1   65.81    1.87
   3  15   2   29.93    1.43
   3  15   2   28.61    1.29
   3  15   2   29.68    1.32
   3  15   3   26.71    1.40
   3  15   3   25.55    1.24
   3  15   3   26.01    1.25
   3  15   4    9.82    1.15
   3  15   4    8.88    0.94
   3  15   5   29.84    1.39
   3  15   5   26.96    1.26
   3  15   6   20.93    1.16
   3  15   6   27.81    1.34
   3  15   7    5.83    0.65
   3  15   7    4.99    0.93
   3  15   8  111.23    2.36
   3  15   8  119.20    2.48
   3  15   9    0.43    0.52
   3  15  10   37.92    1.25
   3  15  10   44.22    1.31
   3  15  11    0.61    0.51
   3  15  11    0.10    0.44
   3  16  -6    4.38    0.36
   3  16  -6    4.10    0.34
   3  16  -5   14.92    0.63
   3  16  -5   13.47    0.72
   3  16  -5   14.10    0.61
   3  16  -4   18.19    0.79
   3  16  -4   18.58    0.91
   3  16  -4   18.60    0.78
   3  16  -3    0.42    0.59
   3  16  -3    0.26    0.83
   3  16  -3   -0.12    0.56
   3  16  -2   89.69    1.93
   3  16  -2   89.40    1.92
   3  16  -2   88.59    1.90
   3  16  -1    7.52    0.77
   3  16  -1    5.88    0.75
   3  16  -1    9.15    0.82
   3  16  -1    7.31    1.01
   3  16   0   63.34    1.71
   3  16   0   67.55    1.71
   3  16   0   63.53    1.70
   3  16   0   66.27    1.72
   3  16   1   27.73    1.19
   3  16   1   31.06    1.27
   3  16   1   29.13    1.20
   3  16   1   28.40    1.29
   3  16   2    0.84    0.70
   3  16   2    0.86    0.83
   3  16   2    1.41    0.95
   3  16   3    0.97    0.72
   3  16   3    1.96    0.89
   3  16   3    0.54    0.94
   3  16   4   55.78    1.66
   3  16   4   62.22    1.79
   3  16   5   17.63    1.12
   3  16   6   80.33    2.00
   3  16   7   42.63    1.40
   3  16   9   98.31    1.98
   3  16  10    0.72    0.45
   3  17  -4    0.56    0.30
   3  17  -3   45.39    1.05
   3  17  -3   45.48    1.06
   3  17  -2   -0.08    0.48
   3  17  -2   -0.04    0.57
   3  17  -2   -0.05    0.48
   3  17  -1   94.21    1.75
   3  17  -1   98.18    1.92
   3  17   0   13.20    0.84
   3  17   0   14.63    0.80
   3  17   1   75.04    1.68
   3  17   1   72.72    1.67
   3  17   2   33.66    1.20
   3  17   2   32.21    1.14
   3  17   3   39.50    1.29
   3  17   3   35.58    1.19
   3  17   4   11.97    0.89
   3  17   5   60.20    1.58
   3  17   6   32.80    1.16
   3  17   7   36.84    1.16
   3  17   8   23.47    0.79
   3  18  -1    2.15    0.34
   3  18   0   33.20    0.87
   3  18   1    1.50    0.44
   4 -16  -2   26.90    0.70
   4 -16  -1    6.32    0.44
   4 -16   0   29.63    0.78
   4 -16   0   23.01    0.66
   4 -16   1    0.57    0.33
   4 -16   1    0.36    0.31
   4 -16   2   39.51    0.87
   4 -16   2   41.39    0.91
   4 -16   3    4.75    0.34
   4 -15  -6   20.12    0.67
   4 -15  -5   13.18    0.64
   4 -15  -4   39.12    0.95
   4 -15  -4   36.72    1.02
   4 -15  -3   24.35    0.85
   4 -15  -2   26.20    0.94
   4 -15  -2   25.04    0.85
   4 -15  -1   12.29    0.68
   4 -15  -1   13.55    0.78
   4 -15   0    7.67    0.66
   4 -15   1   76.96    1.73
   4 -15   2    0.62    0.53
   4 -15   3   91.36    1.84
   4 -15   3   88.40    1.74
   4 -15   3   82.38    1.64
   4 -15   3   83.26    1.71
   4 -15   4    1.20    0.41
   4 -15   4    1.30    0.36
   4 -15   4    1.48    0.46
   4 -15   5   53.63    1.14
   4 -15   5   57.09    1.21
   4 -15   5   56.52    1.22
   4 -15   6    1.16    0.29
   4 -15   6    1.06    0.25
   4 -14  -8    6.63    0.48
   4 -14  -7   16.79    0.77
   4 -14  -6   13.44    0.80
   4 -14  -6    9.38    0.43
   4 -14  -5   50.97    1.23
   4 -14  -5   55.34    1.48
   4 -14  -5   53.18    1.34
   4 -14  -4   10.48    0.73
   4 -14  -4   10.28    0.68
   4 -14  -4    9.92    0.85
   4 -14  -3   38.23    1.28
   4 -14  -3   37.96    1.19
   4 -14  -3   39.65    1.30
   4 -14  -3   34.87    1.08
   4 -14  -2   17.54    0.87
   4 -14  -2   16.40    0.95
   4 -14  -2   17.33    0.89
   4 -14  -1   41.09    1.28
   4 -14  -1   40.36    1.34
   4 -14   0   13.70    0.82
   4 -14   0   13.44    0.92
   4 -14   1    5.71    0.69
   4 -14   1    5.32    0.61
   4 -14   1    5.13    0.56
   4 -14   1    5.70    0.80
   4 -14   2   28.06    1.12
   4 -14   2   26.58    1.05
   4 -14   2   26.08    0.97
   4 -14   3   42.53    1.36
   4 -14   3   41.44    1.34
   4 -14   3   38.42    1.17
   4 -14   3   40.17    1.27
   4 -14   3   41.19    1.40
   4 -14   4   18.15    0.94
   4 -14   4   16.99    0.77
   4 -14   4   18.41    0.93
   4 -14   4   16.52    0.86
   4 -14   4   17.59    0.97
   4 -14   5   26.58    1.00
   4 -14   5   26.86    1.02
   4 -14   5   24.62    0.87
   4 -14   5   27.10    0.99
   4 -14   5   24.90    1.02
   4 -14   6   34.99    0.96
   4 -14   6   36.49    1.08
   4 -14   6   35.70    1.11
   4 -14   6   37.89    1.08
   4 -14   6   39.20    1.07
   4 -14   6   34.23    1.06
   4 -14   7    1.41    0.42
   4 -14   7    1.97    0.33
   4 -14   7    2.28    0.45
   4 -14   7    1.96    0.43
   4 -14   8   48.83    1.07
   4 -14   8   49.80    1.07
   4 -13  -9    0.58    0.44
   4 -13  -8   68.25    1.59
   4 -13  -7    1.55    0.70
   4 -13  -7    1.36    0.48
   4 -13  -6   13.23    0.66
   4 -13  -6   15.61    1.07
   4 -13  -6   14.82    0.82
   4 -13  -5    2.03    0.58
   4 -13  -5    2.23    0.58
   4 -13  -5    2.72    0.88
   4 -13  -4  128.98    2.64
   4 -13  -4  132.01    2.62
   4 -13  -4  137.52    2.82
   4 -13  -3    8.29    0.78
   4 -13  -3    8.31    0.98
   4 -13  -3    6.91    0.73
   4 -13  -2   78.27    1.95
   4 -13  -2   75.95    2.05
   4 -13  -2   73.44    1.97
   4 -13  -1   33.63    1.28
   4 -13  -1   33.02    1.38
   4 -13   0   37.53    1.35
   4 -13   0   36.37    1.38
   4 -13   0   37.43    1.39
   4 -13   0   35.28    1.28
   4 -13   0   34.83    1.28
   4 -13   1   19.16    1.15
   4 -13   1   18.66    0.99
   4 -13   1   17.30    1.01
   4 -13   1   16.98    0.96
   4 -13   2   85.24    2.17
   4 -13   2   79.24    2.00
   4 -13   2   78.89    2.02
   4 -13   2   80.25    2.09
   4 -13   3   65.14    1.75
   4 -13   3   63.70    1.76
   4 -13   3   64.34    1.88
   4 -13   3   64.02    1.84
   4 -13   3   66.76    1.79
   4 -13   3   67.06    1.88
   4 -13   4   19.28    1.09
   4 -13   4   19.00    1.04
   4 -13   4   17.97    0.94
   4 -13   4   19.16    1.09
   4 -13   4   15.67    0.77
   4 -13   4   17.41    0.99
   4 -13   5   41.67    1.47
   4 -13   5   42.24    1.33
   4 -13   5   42.31    1.44
   4 -13   5   43.24    1.41
   4 -13   5   39.18    1.16
   4 -13   5   45.70    1.42
   4 -13   5   40.98    1.46
   4 -13   6    1.85    0.68
   4 -13   6    1.62    0.63
   4 -13   6    1.80    0.66
   4 -13   6    1.22    0.42
   4 -13   6    1.94    0.62
   4 -13   6    1.88    0.56
   4 -13   6    1.77    0.66
   4 -13   7   41.06    1.31
   4 -13   7   41.45    1.21
   4 -13   7   42.73    1.33
   4 -13   7   41.80    1.23
   4 -13   7   38.51    1.08
   4 -13   7   43.71    1.27
   4 -13   7   37.73    1.20
   4 -13   8    4.39    0.54
   4 -13   8    3.71    0.40
   4 -13   8    4.13    0.55
   4 -13   8    5.24    0.61
   4 -13   8    4.30    0.51
   4 -13   8    4.10    0.57
   4 -13   9   85.07    1.64
   4 -13   9   86.10    1.67
   4 -13   9   85.01    1.58
   4 -13  10    0.25    0.24
   4 -12 -10   13.60    0.60
   4 -12  -9   26.89    0.95
   4 -12  -9   26.19    1.00
   4 -12  -8    1.32    0.70
   4 -12  -8    0.77    0.74
   4 -12  -7   88.80    2.07
   4 -12  -7   77.41    2.10
   4 -12  -6    9.15    1.01
   4 -12  -6    8.52    0.80
   4 -12  -6    8.47    1.09
   4 -12  -6    6.58    0.67
   4 -12  -5   84.38    2.11
   4 -12  -5   88.59    2.38
   4 -12  -5   85.24    2.07
   4 -12  -4   18.90    0.97
   4 -12  -4   18.11    1.07
   4 -12  -3   38.57    1.45
   4 -12  -2    0.45    0.95
   4 -12  -2    0.69    0.69
   4 -12  -2    1.29    0.76
   4 -12  -1   83.90    2.32
   4 -12  -1   81.58    2.12
   4 -12  -1   80.22    2.15
   4 -12  -1   78.75    2.10
   4 -12  -1   89.46    2.42
   4 -12  -1   79.15    2.28
   4 -12  -1   74.78    2.03
   4 -12  -1   82.86    2.15
   4 -12   0   23.15    1.20
   4 -12   0   20.32    1.11
   4 -12   0   22.86    1.34
   4 -12   0   25.13    1.60
   4 -12   0   23.13    1.15
   4 -12   0   22.86    1.24
   4 -12   0   22.17    1.15
   4 -12   0   23.23    1.30
   4 -12   0   20.88    1.28
   4 -12   1   25.10    1.54
   4 -12   1   24.48    1.29
   4 -12   1   23.68    1.19
   4 -12   1   22.93    1.22
   4 -12   1   23.80    1.31
   4 -12   1   22.55    1.19
   4 -12   1   21.66    1.14
   4 -12   2   74.25    1.98
   4 -12   2   65.25    1.88
   4 -12   2   69.82    2.15
   4 -12   2   67.02    2.05
   4 -12   2   68.69    1.98
   4 -12   2   66.12    2.06
   4 -12   2   68.35    2.04
   4 -12   2   65.83    1.94
   4 -12   3   38.32    1.55
   4 -12   3   43.09    1.50
   4 -12   3   38.69    1.43
   4 -12   3   38.95    1.48
   4 -12   3   37.04    1.54
   4 -12   3   37.37    1.58
   4 -12   4   28.99    1.23
   4 -12   4   26.60    1.11
   4 -12   4   28.30    1.39
   4 -12   4   26.95    1.34
   4 -12   6   13.65    1.00
   4 -12   6   16.30    0.98
   4 -12   6   14.29    1.00
   4 -12   6   15.35    1.00
   4 -12   7   15.94    1.04
   4 -12   7   16.05    1.01
   4 -12   7   15.80    0.93
   4 -12   7   14.07    0.93
   4 -12   7   15.87    0.98
   4 -12   7   12.87    0.92
   4 -12   8   75.57    1.80
   4 -12   8   74.95    1.95
   4 -12   8   80.14    1.90
   4 -12   8   78.49    1.96
   4 -12   9   13.43    0.79
   4 -12   9   14.29    0.77
   4 -12   9   13.56    0.81
   4 -12   9   13.09    0.82
   4 -12  10   44.61    1.13
   4 -12  10   44.77    1.15
   4 -12  10   42.59    1.17
   4 -12  10   42.89    1.13
   4 -12  11    3.33    0.32
   4 -12  11    3.69    0.36
   4 -12  11    4.36    0.39
   4 -11 -10   19.74    0.89
   4 -11 -10   14.81    0.79
   4 -11  -9    0.42    0.70
   4 -11  -9   -0.18    0.69
   4 -11  -8   43.46    1.48
   4 -11  -8   38.71    1.52
   4 -11  -7    8.81    1.01
   4 -11  -7    8.22    1.11
   4 -11  -6  103.45    2.53
   4 -11  -5    6.65    1.07
   4 -11  -5    5.83    1.18
   4 -11  -5    6.54    0.84
   4 -11  -4   57.72    2.11
   4 -11  -4   55.11    1.70
   4 -11  -3    3.43    2.62
   4 -11  -3    4.90    1.19
   4 -11  -3    4.08    0.83
   4 -11  -3    5.04    0.85
   4 -11  -2  124.49    2.96
   4 -11  -2  116.67    2.79
   4 -11  -2  120.38    2.73
   4 -11  -2  115.78    2.76
   4 -11  -2  128.42    3.04
   4 -11  -2  119.67    2.79
   4 -11  -2  127.29    3.12
   4 -11  -1    5.93    1.01
   4 -11  -1    7.26    3.23
   4 -11  -1    6.33    1.49
   4 -11  -1    5.60    0.82
   4 -11  -1    5.35    0.90
   4 -11  -1    4.81    0.82
   4 -11  -1    5.94    1.18
   4 -11  -1    5.85    0.88
   4 -11   0   90.62    2.37
   4 -11   0   96.21    2.45
   4 -11   0  100.83    2.62
   4 -11   0  100.40    2.53
   4 -11   0   97.91    2.54
   4 -11   0  103.69    2.92
   4 -11   0  106.91    5.68
   4 -11   0  103.44    2.66
   4 -11   0  103.44    2.68
   4 -11   1    1.23    0.70
   4 -11   1    1.28    0.74
   4 -11   1    1.25    0.76
   4 -11   1    2.54    3.10
   4 -11   1    1.34    1.46
   4 -11   1    1.05    0.90
   4 -11   1    0.96    0.79
   4 -11   1    0.59    0.93
   4 -11   1    0.61    0.76
   4 -11   1    1.26    0.58
   4 -11   1    1.32    0.95
   4 -11   2  198.45    3.80
   4 -11   2  185.15    3.73
   4 -11   2  192.87    4.03
   4 -11   2  191.64    6.94
   4 -11   2  189.11    3.87
   4 -11   2  191.36    3.99
   4 -11   2  190.18    4.05
   4 -11   2  191.28    3.95
   4 -11   2  183.05    3.70
   4 -11   2  188.41    3.64
   4 -11   2  196.70    3.88
   4 -11   3  134.55    2.86
   4 -11   3  124.83    2.78
   4 -11   3  121.01    2.95
   4 -11   3  123.67    5.38
   4 -11   3  120.63    2.93
   4 -11   3  112.18    2.61
   4 -11   3  121.06    2.71
   4 -11   3  125.95    2.90
   4 -11   3  121.32    2.88
   4 -11   3  117.50    3.03
   4 -11   3  115.98    2.97
   4 -11   4   19.66    1.13
   4 -11   4   19.83    1.10
   4 -11   4   21.48    1.35
   4 -11   4   22.11    1.23
   4 -11   4   21.02    1.30
   4 -11   4   21.16    1.28
   4 -11   4   20.58    1.23
   4 -11   5   26.91    1.23
   4 -11   5   28.51    1.35
   4 -11   5   28.54    1.40
   4 -11   5   28.14    1.38
   4 -11   5   27.23    1.47
   4 -11   5   23.07    1.14
   4 -11   6   22.23    1.22
   4 -11   6   20.49    1.29
   4 -11   6   18.17    1.03
   4 -11   7   33.48    1.38
   4 -11   8   30.49    1.27
   4 -11   8   25.04    1.11
   4 -11   8   27.94    1.31
   4 -11   8   28.85    1.13
   4 -11   8   27.72    1.20
   4 -11   8   30.01    1.28
   4 -11   9   38.97    1.26
   4 -11   9   42.26    1.44
   4 -11   9   43.06    1.40
   4 -11   9   43.79    1.43
   4 -11  10    0.46    0.56
   4 -11  10    0.27    0.55
   4 -11  10    0.32    0.57
   4 -11  10    0.26    0.56
   4 -11  11   43.89    1.15
   4 -11  11   43.99    1.19
   4 -11  12    0.44    0.34
   4 -10 -10    6.32    0.76
   4 -10 -10    4.06    0.69
   4 -10  -9   20.16    1.12
   4 -10  -9   16.54    1.10
   4 -10  -8    9.81    1.04
   4 -10  -8    9.26    1.10
   4 -10  -7   64.56    1.98
   4 -10  -6   12.16    1.18
   4 -10  -6   12.07    1.35
   4 -10  -6    9.92    0.86
   4 -10  -5  158.25    3.78
   4 -10  -5  148.67    3.32
   4 -10  -4    0.20    1.22
   4 -10  -4    0.16    0.98
   4 -10  -4   -0.11    0.67
   4 -10  -3   19.07    3.19
   4 -10  -3   18.90    1.50
   4 -10  -3   17.68    1.55
   4 -10  -3   19.81    1.34
   4 -10  -3   18.70    1.19
   4 -10  -2    0.10    0.70
   4 -10  -2    0.81    0.86
   4 -10  -2    0.36    0.65
   4 -10  -2    0.52    0.71
   4 -10  -2    2.04    2.97
   4 -10  -2    0.79    1.35
   4 -10  -2   -0.31    1.17
   4 -10  -2    0.72    1.00
   4 -10  -1  123.56    2.88
   4 -10  -1  134.61    3.22
   4 -10  -1  130.63    3.04
   4 -10  -1  128.36    2.95
   4 -10  -1  126.95    2.95
   4 -10  -1  135.18    3.38
   4 -10  -1  142.34    6.46
   4 -10  -1  131.08    3.05
   4 -10  -1  128.99    3.25
   4 -10  -1  118.13    2.64
   4 -10   0    1.00    0.74
   4 -10   0    0.78    0.74
   4 -10   0    1.32    3.93
   4 -10   0    1.35    1.83
   4 -10   0    0.90    0.87
   4 -10   0    0.87    0.79
   4 -10   0    1.34    0.99
   4 -10   0    0.78    0.59
   4 -10   0    0.81    1.06
   4 -10   0    1.45    0.81
   4 -10   1  519.70    8.50
   4 -10   1  542.62    8.58
   4 -10   1  561.47    9.24
   4 -10   1  578.77   13.84
   4 -10   1  549.76    8.94
   4 -10   1  546.02    8.86
   4 -10   1  547.10    8.74
   4 -10   1  549.65    8.82
   4 -10   1  560.20    8.77
   4 -10   1  521.17    8.43
   4 -10   1  544.84    8.70
   4 -10   2  172.62    3.47
   4 -10   2  164.46    3.42
   4 -10   2  166.23    3.87
   4 -10   2  167.59    6.85
   4 -10   2  168.19    3.81
   4 -10   2  164.35    3.69
   4 -10   2  166.12    3.60
   4 -10   2  168.50    3.68
   4 -10   2  165.10    3.42
   4 -10   2  168.41    3.51
   4 -10   2  174.08    3.63
   4 -10   2  166.98    3.95
   4 -10   3   74.82    2.07
   4 -10   3   74.08    2.08
   4 -10   3   70.09    1.91
   4 -10   3   78.49    2.43
   4 -10   3   80.84    2.29
   4 -10   3   69.90    2.39
   4 -10   3   73.14    4.59
   4 -10   3   76.04    2.30
   4 -10   3   77.68    2.28
   4 -10   3   78.84    2.71
   4 -10   3   74.27    2.08
   4 -10   4   78.39    2.10
   4 -10   4   74.95    2.06
   4 -10   4   68.82    1.92
   4 -10   4   74.03    2.40
   4 -10   4   77.49    2.28
   4 -10   4   69.30    4.33
   4 -10   4   72.31    2.18
   4 -10   4   75.12    2.28
   4 -10   4   69.21    1.91
   4 -10   4   80.17    2.30
   4 -10   5   44.37    1.56
   4 -10   5   42.24    1.71
   4 -10   5   37.78    1.46
   4 -10   5   40.79    1.60
   4 -10   5   41.53    1.71
   4 -10   5   44.18    1.74
   4 -10   6    2.32    0.85
   4 -10   6    3.00    0.91
   4 -10   6    2.51    0.81
   4 -10   6    3.27    0.84
   4 -10   6    3.02    0.93
   4 -10   6    3.69    0.90
   4 -10   7   50.23    1.78
   4 -10   7   46.76    1.58
   4 -10   7   48.83    1.72
   4 -10   7   48.98    1.62
   4 -10   7   46.01    1.71
   4 -10   7   46.44    1.72
   4 -10   8  162.92    3.18
   4 -10   8  159.96    3.40
   4 -10   8  149.65    3.08
   4 -10   8  158.07    3.30
   4 -10   9   77.59    1.86
   4 -10   9   74.77    1.95
   4 -10  10   95.78    2.26
   4 -10  10   89.52    2.04
   4 -10  10   87.15    2.19
   4 -10  10   94.74    2.16
   4 -10  10   95.01    2.03
   4 -10  10   86.63    1.96
   4 -10  10   96.63    2.21
   4 -10  11    2.31    0.52
   4 -10  11    2.17    0.64
   4 -10  11    1.77    0.60
   4 -10  11    1.48    0.58
   4 -10  11    2.05    0.61
   4 -10  11    2.56    0.61
   4 -10  12   46.32    1.09
   4 -10  12   48.61    1.30
   4 -10  13    0.45    0.35
   4  -9 -10   28.87    1.19
   4  -9 -10   36.09    1.33
   4  -9  -9   79.65    2.19
   4  -9  -9   96.00    2.24
   4  -9  -8  138.27    3.00
   4  -9  -7    7.96    0.84
   4  -9  -7    9.63    1.13
   4  -9  -7    8.29    1.27
   4  -9  -6   70.83    2.10
   4  -9  -6   58.68    1.77
   4  -9  -5   24.93    1.43
   4  -9  -5   21.57    1.09
   4  -9  -5   23.82    1.25
   4  -9  -4   68.35    2.08
   4  -9  -4   60.80    1.86
   4  -9  -3    3.51    0.79
   4  -9  -3    3.85    0.86
   4  -9  -3    3.25    1.34
   4  -9  -3    3.18    0.59
   4  -9  -3    4.94    2.92
   4  -9  -3    4.94    1.31
   4  -9  -2  123.09    3.12
   4  -9  -2  123.62    5.91
   4  -9  -2  123.27    2.90
   4  -9  -2  122.53    2.84
   4  -9  -2  124.42    2.88
   4  -9  -2  120.74    2.60
   4  -9  -2  128.38    3.27
   4  -9  -2  125.37    3.03
   4  -9  -1   14.91    1.86
   4  -9  -1   13.91    4.09
   4  -9  -1   13.81    1.12
   4  -9  -1   14.59    1.07
   4  -9  -1   13.64    1.06
   4  -9  -1   14.70    1.22
   4  -9  -1   14.73    1.44
   4  -9  -1   14.73    0.91
   4  -9   0  427.41    7.81
   4  -9   0  443.76   13.33
   4  -9   0  408.82    6.98
   4  -9   0  410.57    6.93
   4  -9   0  400.81    6.82
   4  -9   0  407.84    6.88
   4  -9   0  380.88    6.52
   4  -9   0  407.46    6.76
   4  -9   0  413.87    7.04
   4  -9   1  154.49    4.37
   4  -9   1  151.32    8.14
   4  -9   1  157.75    3.52
   4  -9   1  150.26    3.33
   4  -9   1  153.86    3.44
   4  -9   1  152.80    3.41
   4  -9   1  136.29    3.44
   4  -9   1  152.90    3.34
   4  -9   1  156.32    3.44
   4  -9   1  148.37    3.13
   4  -9   2  311.66    5.46
   4  -9   2  306.22    5.18
   4  -9   2  334.00    5.97
   4  -9   2  326.37    5.75
   4  -9   2  325.37    5.89
   4  -9   2  293.69    6.01
   4  -9   2  297.63    9.63
   4  -9   2  320.94    5.75
   4  -9   2  334.36    6.36
   4  -9   2  329.00    5.66
   4  -9   2  332.72    5.73
   4  -9   3  431.25    6.87
   4  -9   3  450.52    7.65
   4  -9   3  453.78    7.43
   4  -9   3  401.15    7.29
   4  -9   3  414.18   10.74
   4  -9   3  430.54    7.23
   4  -9   3  435.91    7.39
   4  -9   3  488.50    8.45
   4  -9   3  459.49    7.44
   4  -9   3  443.00    7.14
   4  -9   4  101.98    2.36
   4  -9   4  108.44    2.75
   4  -9   4   92.11    2.62
   4  -9   4   90.27    4.92
   4  -9   4  107.02    2.59
   4  -9   4  104.48    2.73
   4  -9   4  106.50    2.72
   4  -9   4   98.92    2.38
   4  -9   4  100.12    3.17
   4  -9   5  180.93    3.52
   4  -9   5  178.95    3.50
   4  -9   5  175.93    3.78
   4  -9   5  167.17    3.32
   4  -9   5  168.98    3.67
   4  -9   5  177.30    3.57
   4  -9   5  167.34    3.69
   4  -9   5  172.41    3.75
   4  -9   6  180.40    3.54
   4  -9   6  169.84    3.37
   4  -9   6  174.37    3.70
   4  -9   6  176.91    3.80
   4  -9   6  177.96    3.58
   4  -9   6  167.43    3.71
   4  -9   6  163.35    3.42
   4  -9   6  177.49    3.78
   4  -9   7   53.51    1.87
   4  -9   7   50.45    1.65
   4  -9   7   51.52    1.89
   4  -9   7   50.52    1.62
   4  -9   7   55.35    1.77
   4  -9   7   53.16    1.90
   4  -9   7   51.64    1.68
   4  -9   7   52.69    1.89
   4  -9   8    7.03    0.92
   4  -9   8    8.03    1.02
   4  -9   8    6.82    0.98
   4  -9   8    6.65    0.75
   4  -9   8    7.83    0.89
   4  -9   8    7.65    0.97
   4  -9   8    6.42    0.81
   4  -9   8    7.15    1.00
   4  -9   9  157.49    3.46
   4  -9   9  160.22    3.20
   4  -9   9  169.39    3.40
   4  -9   9  151.94    3.09
   4  -9   9  162.23    3.41
   4  -9   9  152.41    3.17
   4  -9  10   14.61    0.90
   4  -9  10   14.15    0.94
   4  -9  10   15.22    1.05
   4  -9  11   95.33    2.30
   4  -9  11   92.56    2.09
   4  -9  11   94.04    2.21
   4  -9  11   93.28    2.06
   4  -9  11   94.56    2.13
   4  -9  11   97.91    2.23
   4  -9  12    1.14    0.51
   4  -9  12    0.64    0.59
   4  -9  12    1.12    0.62
   4  -9  12    1.12    0.53
   4  -9  12    0.80    0.60
   4  -9  13   11.81    0.58
   4  -9  13   10.42    0.63
   4  -9  13   12.49    0.66
   4  -9  13   13.41    0.71
   4  -9  13   12.48    0.72
   4  -9  14    1.88    0.35
   4  -8 -11    7.42    0.71
   4  -8 -10   53.59    1.55
   4  -8 -10   57.52    1.66
   4  -8  -9   41.44    1.58
   4  -8  -8   61.85    1.86
   4  -8  -8   62.20    2.13
   4  -8  -7  162.00    3.30
   4  -8  -7  135.47    3.05
   4  -8  -6   15.77    1.07
   4  -8  -6   17.83    1.29
   4  -8  -6   15.64    0.93
   4  -8  -6   17.39    1.05
   4  -8  -5  300.68    5.31
   4  -8  -5  300.81    5.17
   4  -8  -5  294.95    5.10
   4  -8  -4    4.61    0.81
   4  -8  -3  121.89    2.87
   4  -8  -3  123.55    2.84
   4  -8  -3  123.01    2.97
   4  -8  -3  125.40    5.51
   4  -8  -3  132.11    2.94
   4  -8  -3  115.66    2.55
   4  -8  -2   16.73    1.19
   4  -8  -2   16.75    1.12
   4  -8  -2   17.04    1.13
   4  -8  -2   15.89    1.04
   4  -8  -2   15.21    0.92
   4  -8  -2   16.25    1.53
   4  -8  -2   18.87    1.32
   4  -8  -2   18.41    3.56
   4  -8  -2   16.70    1.61
   4  -8  -1  225.52    4.38
   4  -8  -1  228.00    4.32
   4  -8  -1  226.66    4.34
   4  -8  -1  224.50    4.35
   4  -8  -1  230.43    4.60
   4  -8  -1  215.31    4.04
   4  -8  -1  216.36    4.69
   4  -8  -1  219.90    8.19
   4  -8   0   54.13    1.79
   4  -8   0   55.18    1.90
   4  -8   0   53.05    1.82
   4  -8   0   53.90    1.86
   4  -8   0   53.04    1.76
   4  -8   0   50.85    1.61
   4  -8   0   53.69    2.02
   4  -8   0   55.45    2.87
   4  -8   0   57.70    6.40
   4  -8   1  256.14    4.79
   4  -8   1  297.04    6.15
   4  -8   1  282.60   10.52
   4  -8   1  277.36    5.00
   4  -8   1  283.60    5.18
   4  -8   1  284.72    5.14
   4  -8   1  271.61    5.00
   4  -8   1  275.27    5.09
   4  -8   1  272.61    4.94
   4  -8   1  243.94    5.07
   4  -8   2  274.61    4.92
   4  -8   2  279.71    4.99
   4  -8   2  275.33    5.53
   4  -8   2  274.63    8.96
   4  -8   2  278.78    4.69
   4  -8   2  301.84    5.47
   4  -8   2  296.42    5.25
   4  -8   2  286.63    5.09
   4  -8   2  285.19    5.23
   4  -8   2  289.85    5.20
   4  -8   2  295.36    5.97
   4  -8   2  301.05    5.20
   4  -8   3   22.02    1.09
   4  -8   3   21.61    1.11
   4  -8   3   20.48    3.49
   4  -8   3   21.00    1.64
   4  -8   3   22.71    1.09
   4  -8   3   24.24    1.32
   4  -8   3   20.07    0.98
   4  -8   3   22.28    1.22
   4  -8   3   23.60    1.38
   4  -8   3   25.08    2.72
   4  -8   3   23.10    1.29
   4  -8   3   24.90    1.34
   4  -8   4   70.46    1.92
   4  -8   4   67.47    1.89
   4  -8   4   64.10    2.16
   4  -8   4   65.86    4.24
   4  -8   4   72.31    1.86
   4  -8   4   74.29    2.18
   4  -8   4   77.16    2.23
   4  -8   4   64.52    1.83
   4  -8   4   73.59    2.05
   4  -8   4   71.22    2.18
   4  -8   4   63.66    2.73
   4  -8   4   73.02    2.19
   4  -8   4   70.82    1.95
   4  -8   5  135.02    2.86
   4  -8   5  130.76    3.07
   4  -8   5  129.96    2.72
   4  -8   5  134.44    3.16
   4  -8   5  130.90    2.83
   4  -8   5  127.08    2.64
   4  -8   5  134.02    2.96
   4  -8   5  125.57    3.09
   4  -8   5  127.24    2.86
   4  -8   5  122.17    2.68
   4  -8   5  133.86    3.14
   4  -8   6   81.14    2.04
   4  -8   6   83.81    2.36
   4  -8   6   81.77    2.40
   4  -8   6   80.30    2.13
   4  -8   6   82.30    2.20
   4  -8   6   77.60    1.89
   4  -8   6   78.90    2.39
   4  -8   6   79.99    2.18
   4  -8   6   83.98    2.41
   4  -8   6   72.09    1.85
   4  -8   7   32.55    1.35
   4  -8   7   35.33    1.59
   4  -8   7   34.63    1.62
   4  -8   7   28.95    1.31
   4  -8   7   32.87    1.44
   4  -8   7   31.05    1.40
   4  -8   7   32.08    1.57
   4  -8   8   23.84    1.38
   4  -8   8   23.39    1.22
   4  -8   8   22.87    1.38
   4  -8   8   24.50    1.15
   4  -8   8   24.18    1.27
   4  -8   8   22.83    1.39
   4  -8   8   23.88    1.27
   4  -8   8   25.89    1.45
   4  -8   9  156.84    3.39
   4  -8   9  150.14    3.06
   4  -8   9  152.06    3.48
   4  -8   9  155.58    3.16
   4  -8   9  155.61    3.28
   4  -8   9  157.31    3.21
   4  -8   9  153.93    3.30
   4  -8   9  157.24    3.45
   4  -8  10  101.72    2.56
   4  -8  10   98.70    2.31
   4  -8  10  101.85    2.64
   4  -8  10  103.86    2.51
   4  -8  10   99.87    2.48
   4  -8  10  100.69    2.57
   4  -8  10  104.45    2.50
   4  -8  10  102.82    2.39
   4  -8  11   49.43    1.62
   4  -8  11   50.64    1.62
   4  -8  11   47.87    1.60
   4  -8  12   94.22    2.06
   4  -8  12   96.19    2.23
   4  -8  12   94.46    2.31
   4  -8  12   95.12    2.20
   4  -8  12   95.63    2.06
   4  -8  12   96.62    2.22
   4  -8  12   88.62    2.12
   4  -8  13    0.98    0.59
   4  -8  13    1.43    0.53
   4  -8  13    1.80    0.50
   4  -8  13    1.86    0.59
   4  -8  13    1.81    0.63
   4  -8  13    1.54    0.62
   4  -8  14   44.51    1.22
   4  -8  14   44.03    1.16
   4  -8  14   44.29    1.05
   4  -8  14   47.17    1.21
   4  -8  14   48.35    1.12
   4  -8  14   48.85    1.22
   4  -8  15   11.73    0.49
   4  -7 -12   21.61    0.92
   4  -7 -11   47.19    1.46
   4  -7 -10   57.04    1.74
   4  -7  -9   45.10    1.54
   4  -7  -9   46.24    1.60
   4  -7  -9   48.32    1.69
   4  -7  -8  168.37    3.52
   4  -7  -8  161.70    3.73
   4  -7  -8  180.81    3.63
   4  -7  -8  189.25    3.54
   4  -7  -7   13.38    1.24
   4  -7  -7   15.60    0.99
   4  -7  -7   13.52    1.05
   4  -7  -6   61.76    1.88
   4  -7  -6   64.79    1.79
   4  -7  -6   62.25    1.80
   4  -7  -5    0.86    0.64
   4  -7  -5    0.83    0.62
   4  -7  -5    0.90    0.75
   4  -7  -5    0.68    0.76
   4  -7  -4  293.99    5.11
   4  -7  -4  276.95    4.97
   4  -7  -3   56.81    1.80
   4  -7  -3   51.90    1.73
   4  -7  -3   54.64    3.95
   4  -7  -3   57.56    1.87
   4  -7  -3   50.63    1.55
   4  -7  -2   22.20    1.26
   4  -7  -2   24.29    1.21
   4  -7  -2   22.32    1.19
   4  -7  -2   22.89    1.16
   4  -7  -2   22.00    1.55
   4  -7  -2   25.45    3.50
   4  -7  -2   19.84    1.58
   4  -7  -2   20.28    1.01
   4  -7  -2   23.66    1.35
   4  -7  -1   48.12    1.70
   4  -7  -1   41.28    1.58
   4  -7  -1   41.41    1.55
   4  -7  -1   41.14    1.52
   4  -7  -1   43.81    1.70
   4  -7  -1   42.87    1.95
   4  -7  -1   46.36    4.28
   4  -7  -1   42.04    1.59
   4  -7  -1   41.00    1.82
   4  -7  -1   40.90    1.39
   4  -7   0  159.87    3.19
   4  -7   0  152.90    3.17
   4  -7   0  150.18    3.28
   4  -7   0  147.42    3.22
   4  -7   0  135.71    2.78
   4  -7   0  155.97    3.70
   4  -7   0  165.95    7.02
   4  -7   0  145.75    3.16
   4  -7   0  145.25    3.11
   4  -7   0  152.55    3.37
   4  -7   0  146.14    3.00
   4  -7   1    5.63    0.76
   4  -7   1    8.39    3.89
   4  -7   1    8.07    1.72
   4  -7   1    7.14    0.97
   4  -7   1    7.25    0.90
   4  -7   1    7.37    0.84
   4  -7   1    5.54    0.59
   4  -7   1    5.94    0.80
   4  -7   1    6.43    0.95
   4  -7   1    6.12    1.10
   4  -7   1    6.22    0.86
   4  -7   2   85.16    2.10
   4  -7   2   90.40    2.17
   4  -7   2   90.93    2.66
   4  -7   2   94.39    5.18
   4  -7   2   89.52    1.96
   4  -7   2   95.12    2.53
   4  -7   2   99.06    2.41
   4  -7   2   88.72    2.05
   4  -7   2   87.68    2.22
   4  -7   2   90.33    2.38
   4  -7   2   92.43    2.37
   4  -7   2   94.85    2.80
   4  -7   2   91.86    2.39
   4  -7   3    2.27    0.62
   4  -7   3    2.02    0.62
   4  -7   3    3.62    2.87
   4  -7   3    1.69    1.24
   4  -7   3    2.53    0.67
   4  -7   3    2.70    0.80
   4  -7   3    2.29    0.78
   4  -7   3    1.93    0.41
   4  -7   3    2.15    0.56
   4  -7   3    2.11    0.71
   4  -7   3    2.27    0.67
   4  -7   3    3.20    0.92
   4  -7   3    2.34    0.89
   4  -7   3    1.72    1.60
   4  -7   3    1.99    0.81
   4  -7   4   52.88    1.59
   4  -7   4   50.14    1.56
   4  -7   4   49.40    1.87
   4  -7   4   50.75    3.75
   4  -7   4   52.65    1.80
   4  -7   4   55.43    1.84
   4  -7   4   51.85    1.59
   4  -7   4   46.82    1.29
   4  -7   4   52.60    1.68
   4  -7   4   50.90    1.53
   4  -7   4   52.88    1.84
   4  -7   4   52.46    1.66
   4  -7   4   56.70    2.30
   4  -7   4   52.07    1.66
   4  -7   4   53.41    1.83
   4  -7   5    1.23    0.63
   4  -7   5    1.61    0.65
   4  -7   5    1.41    0.87
   4  -7   5    2.03    0.83
   4  -7   5    2.58    0.67
   4  -7   5    1.22    0.77
   4  -7   5    1.55    0.93
   4  -7   5    1.56    0.73
   4  -7   5    1.72    0.65
   4  -7   5    2.24    0.87
   4  -7   5    1.34    0.75
   4  -7   6  116.84    2.61
   4  -7   6  120.32    2.87
   4  -7   6  120.03    2.95
   4  -7   6  115.37    2.70
   4  -7   6  122.90    2.74
   4  -7   6  115.56    2.80
   4  -7   6  116.78    2.51
   4  -7   6  117.23    2.75
   4  -7   6  117.09    2.91
   4  -7   7   74.68    2.30
   4  -7   7   76.73    2.15
   4  -7   7   72.38    2.21
   4  -7   7   77.63    2.13
   4  -7   7   73.36    1.89
   4  -7   7   75.27    2.18
   4  -7   7   75.07    2.26
   4  -7   8   79.67    2.37
   4  -7   8   77.57    2.23
   4  -7   8   78.84    2.17
   4  -7   8   78.57    2.30
   4  -7   8   77.17    2.25
   4  -7   8   74.07    1.91
   4  -7   8   82.08    2.35
   4  -7   9  309.62    5.76
   4  -7   9  317.47    5.40
   4  -7   9  314.21    5.48
   4  -7   9  306.57    5.54
   4  -7   9  308.97    5.63
   4  -7   9  313.09    5.66
   4  -7  10  124.08    3.05
   4  -7  10  127.01    2.97
   4  -7  10  125.36    2.93
   4  -7  10  127.78    2.82
   4  -7  10  123.52    2.96
   4  -7  10  127.86    3.01
   4  -7  10  120.02    2.64
   4  -7  11   35.04    1.55
   4  -7  11   36.03    1.52
   4  -7  11   37.95    1.41
   4  -7  11   36.40    1.52
   4  -7  11   35.36    1.54
   4  -7  11   35.21    1.34
   4  -7  11   36.40    1.50
   4  -7  12  141.59    3.05
   4  -7  12  146.17    3.06
   4  -7  13   63.92    1.85
   4  -7  13   70.39    1.87
   4  -7  13   70.88    1.80
   4  -7  13   67.57    1.68
   4  -7  13   69.96    1.87
   4  -7  13   68.52    1.67
   4  -7  13   71.21    1.87
   4  -7  14   23.95    1.00
   4  -7  14   24.36    1.01
   4  -7  14   25.06    1.04
   4  -7  14   24.44    0.90
   4  -7  14   22.68    0.86
   4  -7  15  104.81    1.98
   4  -7  15  108.23    2.01
   4  -7  15  104.78    1.81
   4  -6 -12   52.36    1.47
   4  -6 -12   50.96    1.43
   4  -6 -11    9.95    0.76
   4  -6 -11    9.39    0.85
   4  -6 -11   10.02    0.87
   4  -6 -10   36.80    1.43
   4  -6 -10   37.90    1.47
   4  -6  -9   36.18    1.53
   4  -6  -9   40.31    1.43
   4  -6  -9   37.56    1.47
   4  -6  -9   38.20    1.52
   4  -6  -8   50.37    1.81
   4  -6  -8   54.19    1.66
   4  -6  -8   45.48    1.68
   4  -6  -8   44.03    1.83
   4  -6  -7   44.65    1.52
   4  -6  -7   43.06    1.62
   4  -6  -6  136.69    2.84
   4  -6  -6  135.15    2.86
   4  -6  -6  132.39    2.97
   4  -6  -5  197.51    3.81
   4  -6  -5  199.38    3.80
   4  -6  -5  197.47    3.71
   4  -6  -5  194.96    3.82
   4  -6  -5  205.92    3.96
   4  -6  -4    2.40    0.80
   4  -6  -4    3.25    0.96
   4  -6  -4    3.53    0.67
   4  -6  -4    2.20    0.69
   4  -6  -3  205.70    3.94
   4  -6  -3  217.94    3.99
   4  -6  -3  212.05    3.96
   4  -6  -3  205.63    3.72
   4  -6  -3  200.45    3.71
   4  -6  -2   37.06    1.41
   4  -6  -2   33.95    1.34
   4  -6  -2   34.90    1.35
   4  -6  -2   37.62    1.48
   4  -6  -2   35.80    1.62
   4  -6  -2   36.16    3.47
   4  -6  -2   33.46    1.20
   4  -6  -2   33.31    1.74
   4  -6  -2   29.02    1.18
   4  -6  -2   37.44    1.50
   4  -6  -2   34.57    1.21
   4  -6  -1  297.47    4.88
   4  -6  -1  281.69    4.94
   4  -6  -1  285.26    4.91
   4  -6  -1  287.51    4.89
   4  -6  -1  289.75    5.03
   4  -6  -1  275.74    4.92
   4  -6  -1  299.45    8.01
   4  -6  -1  275.51    4.69
   4  -6  -1  272.71    5.15
   4  -6  -1  257.20    4.48
   4  -6  -1  273.60    4.85
   4  -6  -1  257.16    4.43
   4  -6   0   11.14    1.04
   4  -6   0    9.51    3.20
   4  -6   0    9.83    1.33
   4  -6   0    9.84    0.69
   4  -6   0    8.30    0.63
   4  -6   0   10.70    0.89
   4  -6   0   13.16    1.02
   4  -6   0   10.77    0.92
   4  -6   0   10.11    0.95
   4  -6   0   10.31    0.79
   4  -6   0   10.70    1.19
   4  -6   0   10.06    0.89
   4  -6   0    9.24    0.74
   4  -6   1  398.58    6.33
   4  -6   1  410.07    9.72
   4  -6   1  380.95    6.29
   4  -6   1  384.13    6.26
   4  -6   1  384.28    6.13
   4  -6   1  339.69    5.49
   4  -6   1  363.32    5.79
   4  -6   1  372.39    5.93
   4  -6   1  367.52    6.09
   4  -6   1  374.77    6.08
   4  -6   1  393.33    6.24
   4  -6   1  331.07    5.58
   4  -6   2    2.65    0.57
   4  -6   2    1.85    0.61
   4  -6   2    2.61    2.92
   4  -6   2    2.03    1.20
   4  -6   2    2.28    0.80
   4  -6   2    1.67    0.72
   4  -6   2    1.93    0.69
   4  -6   2    1.77    0.53
   4  -6   2    1.86    0.41
   4  -6   2    1.74    0.65
   4  -6   2    1.82    0.61
   4  -6   2    1.70    0.80
   4  -6   2    2.22    0.74
   4  -6   2    2.17    0.92
   4  -6   2    1.49    0.53
   4  -6   3   70.16    1.78
   4  -6   3   70.18    1.81
   4  -6   3   70.48    2.10
   4  -6   3   72.96    4.20
   4  -6   3   78.28    2.05
   4  -6   3   81.22    2.13
   4  -6   3   68.99    1.57
   4  -6   3   74.50    1.86
   4  -6   3   77.37    1.94
   4  -6   3   73.36    2.06
   4  -6   3   74.17    1.94
   4  -6   3   77.39    1.86
   4  -6   3   74.67    2.07
   4  -6   3   73.99    2.03
   4  -6   4    1.39    0.56
   4  -6   4    0.57    0.56
   4  -6   4   -0.05    2.43
   4  -6   4    0.70    0.74
   4  -6   4    0.92    0.74
   4  -6   4    0.58    0.40
   4  -6   4    0.83    0.58
   4  -6   4    1.27    0.69
   4  -6   4    0.70    0.62
   4  -6   4    0.99    0.84
   4  -6   4    0.70    0.67
   4  -6   4    0.85    0.78
   4  -6   4    1.12    0.79
   4  -6   5  153.97    3.05
   4  -6   5  156.44    3.05
   4  -6   5  156.92    3.30
   4  -6   5  160.65    3.41
   4  -6   5  158.44    2.85
   4  -6   5  160.18    3.24
   4  -6   5  159.52    3.20
   4  -6   5  152.27    3.24
   4  -6   5  157.79    3.08
   4  -6   5  143.94    3.30
   4  -6   5  152.49    3.24
   4  -6   5  153.33    3.36
   4  -6   5  150.44    3.03
   4  -6   6   40.60    1.37
   4  -6   6   38.07    1.55
   4  -6   6   38.47    1.59
   4  -6   6   40.56    1.50
   4  -6   6   39.48    1.23
   4  -6   6   38.62    1.47
   4  -6   6   36.87    1.57
   4  -6   6   37.71    1.36
   4  -6   6   40.60    1.56
   4  -6   6   36.67    1.31
   4  -6   7  127.43    3.07
   4  -6   7  120.42    2.63
   4  -6   7  130.68    2.96
   4  -6   7  132.02    2.90
   4  -6   7  125.55    2.94
   4  -6   7  123.04    2.69
   4  -6   7  124.75    2.96
   4  -6   7  126.08    2.97
   4  -6   8   57.66    2.00
   4  -6   8   57.73    1.93
   4  -6   8   56.84    1.68
   4  -6   8   54.15    1.65
   4  -6   8   55.59    1.96
   4  -6   8   57.35    1.99
   4  -6   8   54.25    1.94
   4  -6   8   58.24    1.88
   4  -6   9  131.48    3.12
   4  -6   9  128.15    3.13
   4  -6   9  123.77    2.72
   4  -6   9  131.21    3.12
   4  -6   9  132.39    2.99
   4  -6   9  131.46    3.09
   4  -6  10   60.41    1.75
   4  -6  10   66.92    2.17
   4  -6  10   67.48    2.18
   4  -6  10   68.90    2.03
   4  -6  10   67.94    2.14
   4  -6  11  202.67    4.14
   4  -6  11  206.77    3.94
   4  -6  11  198.75    4.01
   4  -6  11  196.29    4.13
   4  -6  11  199.47    4.10
   4  -6  12   72.15    1.98
   4  -6  12   72.78    2.09
   4  -6  12   70.54    2.14
   4  -6  12   71.76    2.14
   4  -6  12   73.77    2.17
   4  -6  13   31.92    1.40
   4  -6  13   34.40    1.44
   4  -6  13   29.98    1.32
   4  -6  14  104.26    2.43
   4  -6  14  122.49    2.57
   4  -6  14  120.27    2.56
   4  -6  14  117.51    2.51
   4  -6  14  112.23    2.24
   4  -6  14  112.39    2.31
   4  -6  14  121.78    2.46
   4  -6  15   10.66    0.73
   4  -6  15   12.70    0.79
   4  -6  15   10.30    0.63
   4  -6  15   12.50    0.66
   4  -6  15   13.56    0.79
   4  -6  15   12.23    0.79
   4  -6  16   50.05    1.08
   4  -6  16   46.31    1.05
   4  -5 -13   18.67    0.85
   4  -5 -12   10.37    0.71
   4  -5 -12   11.61    0.86
   4  -5 -12   10.70    0.84
   4  -5 -11   57.67    1.62
   4  -5 -10   10.20    0.87
   4  -5 -10   10.06    0.98
   4  -5 -10    9.80    0.97
   4  -5  -9   51.85    1.80
   4  -5  -9   59.31    1.75
   4  -5  -9   54.21    1.80
   4  -5  -9   55.60    1.82
   4  -5  -8  115.62    2.86
   4  -5  -8  114.07    2.75
   4  -5  -7    4.63    0.86
   4  -5  -7    3.39    0.64
   4  -5  -7    4.29    1.13
   4  -5  -6   51.16    1.54
   4  -5  -6   53.48    1.71
   4  -5  -6   50.05    1.59
   4  -5  -6   52.77    1.59
   4  -5  -5    7.92    0.84
   4  -5  -5    7.05    0.73
   4  -5  -5    7.44    0.86
   4  -5  -5    8.14    1.07
   4  -5  -5    9.54    0.83
   4  -5  -5    6.29    0.76
   4  -5  -4  166.97    3.29
   4  -5  -4  158.89    3.28
   4  -5  -4  167.28    3.16
   4  -5  -4  163.19    3.26
   4  -5  -4  168.00    3.23
   4  -5  -3   42.95    1.46
   4  -5  -3   41.84    1.45
   4  -5  -3   43.09    1.54
   4  -5  -3   44.94    1.35
   4  -5  -3   41.53    1.34
   4  -5  -2  169.39    3.27
   4  -5  -2  163.79    3.24
   4  -5  -2  162.75    3.27
   4  -5  -2  172.69    3.32
   4  -5  -2  154.70    2.85
   4  -5  -2  162.77    3.21
   4  -5  -2  168.79    3.04
   4  -5  -2  164.42    3.09
   4  -5  -2  162.42    3.56
   4  -5  -1   13.94    0.97
   4  -5  -1   14.06    0.92
   4  -5  -1   14.04    0.90
   4  -5  -1   14.54    1.00
   4  -5  -1   15.96    2.89
   4  -5  -1   14.07    0.70
   4  -5  -1   14.33    0.77
   4  -5  -1   13.56    0.79
   4  -5  -1   13.02    1.20
   4  -5  -1   13.74    0.91
   4  -5  -1   15.10    1.05
   4  -5  -1   15.22    0.79
   4  -5   0    8.70    0.94
   4  -5   0    8.58    2.74
   4  -5   0    9.14    1.17
   4  -5   0   10.02    0.90
   4  -5   0    9.50    0.79
   4  -5   0   10.11    0.86
   4  -5   0   10.37    0.94
   4  -5   0    9.26    0.71
   4  -5   0    8.21    0.80
   4  -5   0    8.62    1.08
   4  -5   0    8.89    0.87
   4  -5   0    7.64    0.57
   4  -5   0    6.99    0.58
   4  -5   0    8.56    0.65
   4  -5   1  149.12    3.09
   4  -5   1  158.16    5.49
   4  -5   1  144.37    2.97
   4  -5   1  148.67    3.11
   4  -5   1  150.72    3.10
   4  -5   1  145.82    2.63
   4  -5   1  146.77    2.79
   4  -5   1  144.64    2.84
   4  -5   1  143.57    2.97
   4  -5   1  145.01    2.96
   4  -5   1  156.18    3.13
   4  -5   2  721.13   10.79
   4  -5   2  728.78   10.96
   4  -5   2  745.79   13.94
   4  -5   2  768.62   11.27
   4  -5   2  775.91   11.24
   4  -5   2  736.91   11.00
   4  -5   2  758.13   11.09
   4  -5   2  723.98   10.57
   4  -5   2  746.18   10.85
   4  -5   2  740.72   10.84
   4  -5   2  723.86   11.00
   4  -5   2  753.84   10.86
   4  -5   2  782.74   11.08
   4  -5   2  717.73   10.61
   4  -5   2  723.28   11.01
   4  -5   3   65.21    1.61
   4  -5   3   66.44    1.66
   4  -5   3   70.80    3.86
   4  -5   3   72.73    2.05
   4  -5   3   68.24    1.85
   4  -5   3   70.61    1.91
   4  -5   3   65.74    1.49
   4  -5   3   66.21    1.75
   4  -5   3   68.21    1.74
   4  -5   3   65.30    1.86
   4  -5   3   69.81    1.75
   4  -5   3   65.53    1.77
   4  -5   3   67.93    1.90
   4  -5   3   69.59    1.62
   4  -5   3   65.75    1.56
   4  -5   3   69.64    1.89
   4  -5   4  628.27    9.14
   4  -5   4  624.67    9.10
   4  -5   4  616.14    9.38
   4  -5   4  633.12    9.53
   4  -5   4  606.92    8.89
   4  -5   4  629.25    9.35
   4  -5   4  623.34    9.26
   4  -5   4  595.32    9.29
   4  -5   4  579.27    9.35
   4  -5   4  612.25    9.37
   4  -5   4  630.91    9.24
   4  -5   4  607.68    9.05
   4  -5   4  611.84    9.24
   4  -5   4  610.07    9.46
   4  -5   4  602.92    8.97
   4  -5   5  130.19    2.58
   4  -5   5  127.77    2.54
   4  -5   5  121.35    2.76
   4  -5   5  127.26    2.89
   4  -5   5  132.40    2.81
   4  -5   5  131.32    2.41
   4  -5   5  127.85    2.72
   4  -5   5  121.15    2.74
   4  -5   5  126.52    2.63
   4  -5   5  114.61    2.76
   4  -5   5  122.89    2.80
   4  -5   5  124.92    2.85
   4  -5   5  125.46    2.54
   4  -5   5  124.28    2.60
   4  -5   5  125.70    2.44
   4  -5   6  175.32    3.56
   4  -5   6  181.14    3.67
   4  -5   6  171.44    3.50
   4  -5   6  179.10    3.47
   4  -5   6  182.06    3.13
   4  -5   6  180.31    3.57
   4  -5   6  173.33    3.36
   4  -5   6  175.05    3.59
   4  -5   6  164.11    3.16
   4  -5   6  175.18    3.11
   4  -5   6  166.50    3.20
   4  -5   7    9.12    1.00
   4  -5   7    8.95    1.07
   4  -5   7    9.92    0.95
   4  -5   7    7.52    0.73
   4  -5   7    9.06    0.94
   4  -5   7    8.18    0.70
   4  -5   7    8.98    0.84
   4  -5   7    8.17    1.01
   4  -5   7    8.22    0.89
   4  -5   7    9.05    0.79
   4  -5   8  258.51    4.81
   4  -5   8  264.24    4.69
   4  -5   8  254.12    4.71
   4  -5   8  241.58    4.39
   4  -5   8  258.92    4.87
   4  -5   8  244.89    4.50
   4  -5   8  253.26    4.84
   4  -5   8  238.85    4.19
   4  -5   8  249.66    4.14
   4  -5   9   91.89    2.52
   4  -5   9   91.37    2.42
   4  -5   9   84.80    2.45
   4  -5   9   85.99    2.52
   4  -5   9   85.99    2.21
   4  -5   9   85.69    2.51
   4  -5   9   81.25    1.95
   4  -5  10   49.52    1.89
   4  -5  10   50.07    1.80
   4  -5  10   48.61    1.89
   4  -5  10   47.37    1.89
   4  -5  10   44.65    1.58
   4  -5  10   47.75    1.97
   4  -5  10   43.33    1.36
   4  -5  11   34.56    1.38
   4  -5  11   38.79    1.75
   4  -5  11   39.33    1.72
   4  -5  11   37.86    1.57
   4  -5  11   39.55    1.73
   4  -5  12    5.46    0.95
   4  -5  12    6.02    0.73
   4  -5  12    7.12    1.04
   4  -5  12    6.88    1.05
   4  -5  12    6.83    0.92
   4  -5  12    6.27    1.09
   4  -5  13   28.61    1.29
   4  -5  13   29.78    1.41
   4  -5  13   29.53    1.45
   4  -5  13   29.11    1.43
   4  -5  14    1.85    0.65
   4  -5  14    1.66    0.73
   4  -5  14    2.62    0.81
   4  -5  14    3.01    0.81
   4  -5  14    2.32    0.66
   4  -5  14    1.88    0.68
   4  -5  14    2.62    0.85
   4  -5  15  153.10    2.95
   4  -5  15  153.54    2.94
   4  -5  15  146.25    2.87
   4  -5  15  141.81    2.56
   4  -5  15  137.00    2.67
   4  -5  15  158.19    2.85
   4  -5  16   11.11    0.67
   4  -5  16   14.31    0.75
   4  -5  16   10.63    0.58
   4  -5  16   13.97    0.75
   4  -5  16   12.28    0.52
   4  -5  16   13.39    0.73
   4  -4 -13    7.57    0.56
   4  -4 -13    9.07    0.74
   4  -4 -12   67.67    1.67
   4  -4 -12   64.21    1.76
   4  -4 -12   65.91    1.78
   4  -4 -11   27.17    1.15
   4  -4 -11   31.28    1.33
   4  -4 -10   67.13    1.85
   4  -4 -10   62.09    1.91
   4  -4 -10   62.84    1.93
   4  -4  -9   46.10    1.58
   4  -4  -9   47.03    1.69
   4  -4  -9   49.10    1.73
   4  -4  -8   34.03    1.49
   4  -4  -8   36.15    1.51
   4  -4  -7   29.59    1.20
   4  -4  -7   32.15    1.40
   4  -4  -7   32.42    1.79
   4  -4  -7   31.54    1.29
   4  -4  -7   27.32    1.44
   4  -4  -6  112.85    2.52
   4  -4  -6  113.12    2.43
   4  -4  -6  114.61    2.62
   4  -4  -6  113.81    2.88
   4  -4  -6  116.88    2.86
   4  -4  -5  317.97    5.37
   4  -4  -5  320.48    5.38
   4  -4  -5  322.65    5.31
   4  -4  -5  302.78    5.44
   4  -4  -5  338.41    5.39
   4  -4  -5  333.20    5.81
   4  -4  -4  131.01    2.65
   4  -4  -4  129.43    2.66
   4  -4  -4  119.68    2.44
   4  -4  -4  134.07    2.73
   4  -4  -4  125.51    2.73
   4  -4  -4  140.61    2.68
   4  -4  -4  131.15    2.73
   4  -4  -3  194.98    3.59
   4  -4  -3  199.50    3.57
   4  -4  -3  198.31    3.58
   4  -4  -3  188.07    3.52
   4  -4  -3  197.61    3.43
   4  -4  -3  191.62    3.45
   4  -4  -3  194.68    3.90
   4  -4  -2   51.20    1.55
   4  -4  -2   46.02    1.23
   4  -4  -2   50.92    1.52
   4  -4  -2   48.94    1.51
   4  -4  -2   50.88    1.42
   4  -4  -2   47.55    1.71
   4  -4  -2   50.02    1.53
   4  -4  -2   52.09    1.38
   4  -4  -1   96.16    2.38
   4  -4  -1   92.35    2.03
   4  -4  -1   92.79    2.12
   4  -4  -1   96.27    1.97
   4  -4  -1   90.56    1.98
   4  -4  -1   91.77    1.92
   4  -4   0   12.36    0.78
   4  -4   0   11.57    0.83
   4  -4   0   10.83    1.05
   4  -4   0   11.41    0.87
   4  -4   0   12.81    0.96
   4  -4   0   12.68    0.68
   4  -4   0   11.33    0.69
   4  -4   0   11.67    0.69
   4  -4   1   69.34    1.70
   4  -4   1   72.23    1.91
   4  -4   1   69.46    1.79
   4  -4   1   68.04    1.58
   4  -4   1   69.35    1.65
   4  -4   2    3.69    0.78
   4  -4   2    3.65    0.70
   4  -4   2    4.19    0.86
   4  -4   2    4.23    0.62
   4  -4   2    4.08    0.63
   4  -4   2    3.43    0.54
   4  -4   2    3.75    0.50
   4  -4   2    4.06    0.60
   4  -4   3  552.02    7.95
   4  -4   3  531.29    8.02
   4  -4   3  548.30    8.24
   4  -4   3  530.35    8.29
   4  -4   3  556.28    7.97
   4  -4   3  540.43    8.23
   4  -4   3  517.39    8.23
   4  -4   3  547.76    8.18
   4  -4   3  545.39    8.04
   4  -4   4    4.49    0.66
   4  -4   4    4.40    0.79
   4  -4   4    3.86    0.78
   4  -4   4    5.81    0.64
   4  -4   4    4.07    0.76
   4  -4   4    4.33    0.72
   4  -4   4    5.41    0.52
   4  -4   4    5.26    0.69
   4  -4   4    3.51    0.77
   4  -4   4    4.40    0.66
   4  -4   4    4.97    0.78
   4  -4   4    4.22    0.52
   4  -4   4    4.51    0.57
   4  -4   5  456.79    6.96
   4  -4   5  450.79    6.90
   4  -4   5  467.30    7.25
   4  -4   5  470.83    7.37
   4  -4   5  478.44    6.84
   4  -4   5  463.74    7.27
   4  -4   5  481.02    7.19
   4  -4   5  444.60    7.15
   4  -4   5  466.54    7.15
   4  -4   5  460.83    6.93
   4  -4   5  416.56    7.11
   4  -4   5  456.16    7.30
   4  -4   5  461.43    6.86
   4  -4   5  438.25    6.93
   4  -4   5  440.42    7.26
   4  -4   5  443.82    7.00
   4  -4   6   59.55    1.79
   4  -4   6   58.69    1.81
   4  -4   6   62.08    1.76
   4  -4   6   56.28    1.76
   4  -4   6   55.40    1.56
   4  -4   6   55.06    1.60
   4  -4   6   58.16    1.48
   4  -4   6   56.85    1.67
   4  -4   6   58.98    1.58
   4  -4   6   52.26    1.72
   4  -4   6   58.81    1.82
   4  -4   6   58.20    1.42
   4  -4   6   58.04    1.78
   4  -4   7  168.13    2.95
   4  -4   7  150.33    2.95
   4  -4   7  159.70    3.39
   4  -4   7  158.08    3.33
   4  -4   7  154.23    3.28
   4  -4   7  163.42    3.28
   4  -4   7  156.77    3.03
   4  -4   7  155.58    3.40
   4  -4   7  147.70    2.96
   4  -4   7  159.11    2.87
   4  -4   8  103.79    2.72
   4  -4   8   99.42    2.28
   4  -4   8  102.66    2.62
   4  -4   8  106.78    2.58
   4  -4   8  100.44    2.57
   4  -4   8  103.30    2.33
   4  -4   8  101.27    2.68
   4  -4   8   93.54    2.21
   4  -4   8  104.63    2.13
   4  -4   9  138.50    3.35
   4  -4   9  135.40    3.16
   4  -4   9  137.80    3.08
   4  -4   9  132.30    3.10
   4  -4   9  133.77    2.82
   4  -4   9  133.99    3.32
   4  -4   9  123.63    2.63
   4  -4   9  134.56    2.56
   4  -4  10    9.51    1.25
   4  -4  10    8.38    1.13
   4  -4  10    8.65    1.21
   4  -4  10    8.62    1.07
   4  -4  10    8.89    1.03
   4  -4  10    9.17    1.28
   4  -4  10    9.00    0.89
   4  -4  10    8.89    0.76
   4  -4  11   44.23    1.83
   4  -4  11   43.78    1.75
   4  -4  11   42.32    1.82
   4  -4  11   41.76    1.91
   4  -4  11   42.69    1.99
   4  -4  11   40.43    1.49
   4  -4  12   95.30    2.70
   4  -4  12  102.36    2.63
   4  -4  12   97.82    2.69
   4  -4  12  101.74    2.83
   4  -4  12   97.18    2.82
   4  -4  12  104.84    2.47
   4  -4  13   10.07    1.07
   4  -4  13   10.66    1.01
   4  -4  13   10.61    1.16
   4  -4  13    9.88    1.12
   4  -4  13   10.86    1.14
   4  -4  14   67.83    2.02
   4  -4  14   53.62    1.55
   4  -4  14   69.28    2.01
   4  -4  14   52.55    1.75
   4  -4  15   42.24    1.45
   4  -4  15   41.32    1.45
   4  -4  15   42.27    1.44
   4  -4  15   37.01    1.13
   4  -4  15   38.06    1.29
   4  -4  15   44.77    1.45
   4  -4  16   85.15    1.89
   4  -4  16   76.82    1.71
   4  -4  16   92.86    1.91
   4  -4  16   77.36    1.57
   4  -4  16   84.04    1.88
   4  -4  16   92.01    1.93
   4  -4  17    3.74    0.46
   4  -4  17    2.68    0.33
   4  -4  17    3.60    0.41
   4  -4  17    3.07    0.44
   4  -3 -13   52.64    1.46
   4  -3 -13   52.95    1.33
   4  -3 -12   22.30    1.11
   4  -3 -12   19.69    0.95
   4  -3 -11   94.77    2.37
   4  -3 -11   94.15    2.38
   4  -3 -11  100.04    2.30
   4  -3 -10    4.05    0.81
   4  -3 -10    4.00    0.89
   4  -3 -10    4.54    1.06
   4  -3 -10    5.13    0.77
   4  -3 -10    4.06    0.91
   4  -3  -9  108.47    2.68
   4  -3  -9  114.69    2.77
   4  -3  -9  129.68    2.78
   4  -3  -9  119.84    2.81
   4  -3  -9  121.77    2.83
   4  -3  -8   65.85    1.96
   4  -3  -8   63.55    1.95
   4  -3  -8   59.35    2.22
   4  -3  -8   60.68    1.85
   4  -3  -7  209.55    3.98
   4  -3  -7  208.85    3.99
   4  -3  -6  201.09    3.64
   4  -3  -6  204.50    3.72
   4  -3  -6  184.29    3.45
   4  -3  -6  196.73    3.45
   4  -3  -6  186.77    3.98
   4  -3  -6  180.62    3.68
   4  -3  -5   35.50    1.28
   4  -3  -5   37.03    1.30
   4  -3  -5   34.95    1.22
   4  -3  -5   34.12    1.21
   4  -3  -5   33.11    1.41
   4  -3  -5   36.28    1.51
   4  -3  -4  109.66    2.29
   4  -3  -4  103.94    2.20
   4  -3  -4   94.28    2.37
   4  -3  -4   90.57    2.03
   4  -3  -4   86.22    2.14
   4  -3  -3  152.53    2.94
   4  -3  -3  153.00    2.81
   4  -3  -3  154.28    2.88
   4  -3  -3  145.76    3.08
   4  -3  -3  142.83    2.86
   4  -3  -3  163.10    2.89
   4  -3  -2  146.34    2.66
   4  -3  -2  154.49    2.84
   4  -3  -2  155.64    3.09
   4  -3  -2  154.50    2.85
   4  -3  -2  157.27    2.77
   4  -3  -1    4.57    0.54
   4  -3  -1    4.88    0.51
   4  -3  -1    5.43    0.79
   4  -3  -1    6.90    0.58
   4  -3   0  269.15    4.44
   4  -3   0  273.67    4.45
   4  -3   0  275.85    4.36
   4  -3   1   68.94    1.62
   4  -3   1   65.99    1.46
   4  -3   2  585.55    8.46
   4  -3   2  606.55   10.11
   4  -3   3  390.03    5.92
   4  -3   3  376.32    6.13
   4  -3   4  180.83    3.28
   4  -3   4  190.32    3.21
   4  -3   4  190.92    3.41
   4  -3   4  182.31    3.48
   4  -3   4  183.41    3.18
   4  -3   4  193.76    3.21
   4  -3   4  184.41    3.44
   4  -3   5   56.28    1.64
   4  -3   5   56.78    1.56
   4  -3   5   56.53    1.58
   4  -3   5   62.84    1.46
   4  -3   5   58.52    1.48
   4  -3   5   59.94    1.41
   4  -3   5   61.28    1.70
   4  -3   5   57.74    1.62
   4  -3   5   58.76    1.74
   4  -3   5   58.86    1.45
   4  -3   6  636.86    9.59
   4  -3   6  634.71    9.67
   4  -3   6  663.08    9.57
   4  -3   6  620.29    9.51
   4  -3   6  605.74    9.54
   4  -3   6  600.96    9.25
   4  -3   6  596.21    9.27
   4  -3   6  635.97    9.19
   4  -3   6  641.39    9.27
   4  -3   6  627.02    9.71
   4  -3   6  629.83    9.26
   4  -3   6  658.10    9.16
   4  -3   6  639.34    9.70
   4  -3   7   24.36    0.92
   4  -3   7   23.86    1.28
   4  -3   7   24.30    1.24
   4  -3   7   24.54    0.94
   4  -3   7   24.78    1.22
   4  -3   7   22.53    1.25
   4  -3   7   24.98    0.87
   4  -3   7   21.72    1.24
   4  -3   7   23.28    1.06
   4  -3   7   24.40    1.09
   4  -3   7   23.87    1.00
   4  -3   7   21.95    1.12
   4  -3   8  292.11    5.43
   4  -3   8  296.04    4.77
   4  -3   8  291.34    5.22
   4  -3   8  311.33    4.83
   4  -3   8  300.49    5.20
   4  -3   8  278.84    5.14
   4  -3   8  297.03    4.61
   4  -3   8  288.86    4.88
   4  -3   8  286.25    4.85
   4  -3   8  284.26    5.35
   4  -3   8  283.53    4.65
   4  -3   8  263.21    4.76
   4  -3   9  102.17    2.35
   4  -3   9  117.03    3.10
   4  -3   9  100.62    1.97
   4  -3   9  113.08    2.73
   4  -3   9  110.43    2.72
   4  -3   9  107.57    2.42
   4  -3   9  110.26    3.06
   4  -3   9  110.25    2.45
   4  -3   9  110.92    2.21
   4  -3   9   97.77    2.32
   4  -3  10  326.81    5.69
   4  -3  10  399.44    7.10
   4  -3  10  316.74    5.15
   4  -3  10  356.75    6.14
   4  -3  10  342.21    6.07
   4  -3  10  350.31    5.72
   4  -3  10  380.45    6.93
   4  -3  10  348.17    5.77
   4  -3  10  329.87    5.52
   4  -3  10  356.44    5.40
   4  -3  11   95.25    3.06
   4  -3  11   91.39    2.60
   4  -3  11   92.80    2.65
   4  -3  11   85.08    1.82
   4  -3  11   94.88    2.35
   4  -3  11   95.71    3.06
   4  -3  11   92.88    2.11
   4  -3  11   93.91    1.96
   4  -3  12   40.66    1.20
   4  -3  12   44.45    1.82
   4  -3  12   43.16    1.87
   4  -3  12   47.34    1.66
   4  -3  12   43.50    1.96
   4  -3  12   47.44    1.63
   4  -3  13   64.42    2.22
   4  -3  13   72.12    2.15
   4  -3  13   66.12    2.20
   4  -3  13   64.40    2.25
   4  -3  14   99.22    2.48
   4  -3  14  101.64    2.60
   4  -3  14   99.47    2.61
   4  -3  14   97.52    2.60
   4  -3  15  104.88    2.48
   4  -3  15  122.22    2.64
   4  -3  15  115.41    2.65
   4  -3  15  120.22    2.68
   4  -3  15  110.43    2.61
   4  -3  16   28.99    1.09
   4  -3  16   37.42    1.28
   4  -3  16   32.14    1.16
   4  -3  16   33.63    1.19
   4  -3  16   32.63    1.19
   4  -3  16   28.02    0.90
   4  -3  17   38.84    1.03
   4  -3  17   36.44    1.06
   4  -2 -13    9.15    0.64
   4  -2 -12  104.51    2.29
   4  -2 -12  107.13    2.28
   4  -2 -11   77.31    2.11
   4  -2 -11   77.33    2.04
   4  -2 -11   88.31    2.23
   4  -2 -11   84.42    2.21
   4  -2 -10   85.06    2.27
   4  -2 -10   86.22    2.29
   4  -2 -10   81.03    2.25
   4  -2 -10   78.76    2.18
   4  -2  -9   38.65    1.55
   4  -2  -9   36.11    1.51
   4  -2  -9   33.40    1.69
   4  -2  -9   33.73    1.43
   4  -2  -8   12.19    1.08
   4  -2  -8   11.45    1.05
   4  -2  -8   10.01    0.89
   4  -2  -8   13.27    1.56
   4  -2  -8   12.08    1.00
   4  -2  -7    3.63    0.86
   4  -2  -7    2.55    0.73
   4  -2  -7    4.36    0.86
   4  -2  -7    3.67    1.60
   4  -2  -7    3.79    0.76
   4  -2  -6  300.06    5.05
   4  -2  -6  304.40    5.10
   4  -2  -6  294.96    4.95
   4  -2  -6  292.30    4.79
   4  -2  -6  292.87    5.20
   4  -2  -6  296.53    5.02
   4  -2  -5   96.70    2.16
   4  -2  -5   96.59    2.14
   4  -2  -5   95.33    2.14
   4  -2  -5   92.05    2.01
   4  -2  -5   89.42    2.06
   4  -2  -5   82.40    2.11
   4  -2  -5   85.49    2.12
   4  -2  -4  281.23    4.53
   4  -2  -4  267.50    4.50
   4  -2  -4  273.63    4.40
   4  -2  -3   35.15    1.19
   4  -2  -3   32.63    1.18
   4  -2  -2   44.24    2.08
   4  -2  -2   43.22    1.17
   4  -2  -2   43.41    1.28
   4  -2  -2   43.24    1.30
   4  -2  -1 1452.27   21.36
   4  -2  -1 1377.46   19.48
   4  -2  -1 1410.91   19.43
   4  -2  -1 1427.95   19.47
   4  -2  -1 1373.44   19.42
   4  -2   0  391.10    7.39
   4  -2   0  372.33    5.79
   4  -2   0  369.33    5.77
   4  -2   0  381.22    5.78
   4  -2   0  384.17    5.68
   4  -2   1 2569.83   35.74
   4  -2   1 2506.85   33.90
   4  -2   1 2451.10   33.86
   4  -2   1 2463.62   33.64
   4  -2   2   11.63    0.73
   4  -2   2   12.24    0.56
   4  -2   3  528.74    9.48
   4  -2   3  528.26    8.13
   4  -2   3  538.23    7.87
   4  -2   4   47.43    2.07
   4  -2   4   49.44    1.26
   4  -2   4   47.76    1.44
   4  -2   4   47.94    1.19
   4  -2   5  417.87    6.73
   4  -2   5  447.57    6.68
   4  -2   5  466.35    8.17
   4  -2   5  427.31    6.97
   4  -2   5  469.03    6.67
   4  -2   5  440.00    6.99
   4  -2   5  443.98    6.62
   4  -2   6  151.60    2.76
   4  -2   6  142.85    2.85
   4  -2   6  144.43    3.10
   4  -2   6  146.39    2.76
   4  -2   6  157.73    2.71
   4  -2   6  151.45    3.11
   4  -2   7  340.50    5.19
   4  -2   7  325.73    5.73
   4  -2   7  360.34    5.32
   4  -2   7  353.20    5.66
   4  -2   7  325.43    5.57
   4  -2   7  333.76    5.32
   4  -2   7  316.60    5.73
   4  -2   7  336.82    5.34
   4  -2   7  321.10    5.48
   4  -2   7  306.97    5.33
   4  -2   7  329.71    5.23
   4  -2   8   77.91    1.91
   4  -2   8   82.28    2.39
   4  -2   8   84.37    1.86
   4  -2   8   93.62    1.98
   4  -2   8   89.00    2.26
   4  -2   8   88.10    1.81
   4  -2   8   79.34    2.40
   4  -2   8   86.16    2.03
   4  -2   8   83.36    2.00
   4  -2   8   77.61    2.04
   4  -2   8   84.07    1.90
   4  -2   9   72.59    1.92
   4  -2   9   79.63    2.69
   4  -2   9   75.38    1.81
   4  -2   9   86.31    1.98
   4  -2   9   83.68    2.29
   4  -2   9   84.06    1.82
   4  -2   9   79.75    2.66
   4  -2   9   80.22    2.02
   4  -2   9   79.34    2.02
   4  -2   9   78.94    1.84
   4  -2   9   70.83    1.97
   4  -2  10   15.07    0.99
   4  -2  10   17.94    0.85
   4  -2  10   21.60    2.14
   4  -2  10   17.06    0.79
   4  -2  10   20.19    1.05
   4  -2  10   19.67    1.29
   4  -2  10   19.30    1.16
   4  -2  10   21.13    2.19
   4  -2  10   18.68    1.12
   4  -2  10   19.48    0.94
   4  -2  10   16.58    1.13
   4  -2  11    6.94    1.57
   4  -2  11    7.49    0.66
   4  -2  11    7.17    1.10
   4  -2  11    8.79    1.05
   4  -2  11    8.15    1.69
   4  -2  11    8.12    1.01
   4  -2  11    7.14    0.96
   4  -2  11    8.19    0.73
   4  -2  12    5.62    1.21
   4  -2  12    5.63    0.65
   4  -2  12    5.12    1.09
   4  -2  12    5.42    1.29
   4  -2  12    5.99    0.97
   4  -2  12    6.54    1.02
   4  -2  12    5.71    0.87
   4  -2  13  135.85    3.18
   4  -2  13  128.32    3.25
   4  -2  13  136.24    2.88
   4  -2  13  128.89    3.28
   4  -2  13  138.17    2.98
   4  -2  14   27.59    1.45
   4  -2  14   29.30    1.46
   4  -2  14   28.24    1.57
   4  -2  14   29.80    1.46
   4  -2  15  142.89    3.09
   4  -2  15  142.44    3.08
   4  -2  15  137.74    3.08
   4  -2  16   61.28    1.75
   4  -2  16   76.44    1.93
   4  -2  16   68.23    1.79
   4  -2  16   70.75    1.81
   4  -2  16   68.21    1.82
   4  -2  17    0.75    0.48
   4  -2  17    0.67    0.62
   4  -2  17    0.49    0.40
   4  -2  17    0.60    0.31
   4  -2  17    0.89    0.53
   4  -2  17    1.07    0.32
   4  -2  18   21.65    0.64
   4  -2  18   15.94    0.50
   4  -1 -13   74.03    1.69
   4  -1 -13   76.49    1.81
   4  -1 -12    4.50    0.69
   4  -1 -12    5.47    1.01
   4  -1 -12    5.43    0.69
   4  -1 -11  109.25    2.62
   4  -1 -11  113.30    2.49
   4  -1 -10   10.28    1.07
   4  -1 -10    9.52    1.03
   4  -1 -10    9.07    1.28
   4  -1 -10    9.05    0.99
   4  -1 -10    7.50    0.86
   4  -1  -9   54.64    1.83
   4  -1  -9   53.92    1.82
   4  -1  -9   52.13    1.94
   4  -1  -9   50.47    1.74
   4  -1  -9   48.93    1.68
   4  -1  -8   10.26    1.03
   4  -1  -8   10.08    1.02
   4  -1  -8    9.41    1.42
   4  -1  -8    9.72    0.96
   4  -1  -8    7.38    0.92
   4  -1  -7  239.33    4.31
   4  -1  -7  233.57    4.30
   4  -1  -7  225.64    4.18
   4  -1  -7  229.12    4.25
   4  -1  -6   58.35    1.69
   4  -1  -6   58.30    1.70
   4  -1  -6   52.18    1.62
   4  -1  -6   56.27    1.46
   4  -1  -6   56.44    1.87
   4  -1  -6   57.80    1.65
   4  -1  -5  146.97    2.84
   4  -1  -5  147.49    2.85
   4  -1  -5  137.51    2.82
   4  -1  -5  143.86    2.69
   4  -1  -5  136.18    2.78
   4  -1  -5  145.99    2.86
   4  -1  -4  400.73    5.98
   4  -1  -4  369.48    5.86
   4  -1  -3   62.91    1.53
   4  -1  -3   63.93    2.46
   4  -1  -2  106.23    2.11
   4  -1  -2   99.88    3.14
   4  -1  -1   40.18    1.20
   4  -1  -1   39.42    1.11
   4  -1   0  238.54    3.83
   4  -1   0  236.68    3.83
   4  -1   1  139.32    2.65
   4  -1   1  148.78    2.66
   4  -1   1  146.93    2.46
   4  -1   1  147.38    2.58
   4  -1   2  204.53    3.47
   4  -1   2  196.26    3.15
   4  -1   3  178.00    3.17
   4  -1   3  176.62    2.86
   4  -1   3  174.83    2.96
   4  -1   4  107.31    2.07
   4  -1   4  101.27    2.19
   4  -1   4  100.74    1.88
   4  -1   5   51.77    1.29
   4  -1   5   48.77    1.49
   4  -1   6 1224.45   17.17
   4  -1   6 1182.22   17.27
   4  -1   6 1178.09   17.52
   4  -1   6 1266.97   18.78
   4  -1   6 1286.49   17.11
   4  -1   6 1224.26   17.55
   4  -1   7    0.23    0.85
   4  -1   7    0.52    0.44
   4  -1   7    0.22    0.71
   4  -1   7    0.26    0.65
   4  -1   7    0.56    0.68
   4  -1   7    0.22    0.78
   4  -1   7    0.55    0.62
   4  -1   7    0.71    0.73
   4  -1   8  828.91   12.93
   4  -1   8 1013.20   13.09
   4  -1   8  892.26   12.67
   4  -1   8  933.09   13.43
   4  -1   8  952.39   12.81
   4  -1   8  902.05   12.91
   4  -1   8  831.20   13.04
   4  -1   8  870.53   13.53
   4  -1   8  917.02   13.07
   4  -1   8  917.47   13.05
   4  -1   8  877.02   12.90
   4  -1   8  924.01   12.85
   4  -1   8  876.84   13.61
   4  -1   9  166.54    3.32
   4  -1   9  178.98    4.08
   4  -1   9  181.87    3.27
   4  -1   9  171.66    3.16
   4  -1   9  196.41    3.38
   4  -1   9  175.43    3.68
   4  -1   9  187.85    3.17
   4  -1   9  173.50    4.08
   4  -1   9  175.91    3.40
   4  -1   9  177.97    3.41
   4  -1   9  178.04    3.23
   4  -1   9  166.38    3.39
   4  -1  10  114.37    2.72
   4  -1  10  109.38    2.26
   4  -1  10  134.51    3.87
   4  -1  10  132.19    2.60
   4  -1  10  111.95    2.88
   4  -1  10  113.54    2.41
   4  -1  10  128.78    3.84
   4  -1  10  117.70    2.63
   4  -1  10  118.19    2.62
   4  -1  10  103.12    2.55
   4  -1  10  119.61    2.39
   4  -1  11   21.04    1.21
   4  -1  11   26.18    1.91
   4  -1  11   19.08    0.88
   4  -1  11   23.97    1.14
   4  -1  11   20.08    1.38
   4  -1  11   22.84    1.91
   4  -1  11   22.82    1.30
   4  -1  11   22.37    1.22
   4  -1  11   20.90    0.96
   4  -1  11   20.21    1.23
   4  -1  12   26.18    1.70
   4  -1  12   24.41    1.56
   4  -1  12   24.87    0.97
   4  -1  12   28.63    1.38
   4  -1  12   26.57    1.71
   4  -1  12   29.08    1.39
   4  -1  12   26.17    1.29
   4  -1  13   11.77    0.94
   4  -1  13   12.60    0.80
   4  -1  13   13.75    1.29
   4  -1  13   14.73    1.16
   4  -1  13   14.64    1.32
   4  -1  13   13.61    1.15
   4  -1  13   14.40    1.02
   4  -1  14  254.26    4.91
   4  -1  14  266.66    4.95
   4  -1  14  268.43    4.57
   4  -1  14  264.91    4.91
   4  -1  14  266.55    4.68
   4  -1  15   78.71    2.18
   4  -1  15   81.41    2.19
   4  -1  16   65.47    1.89
   4  -1  16   69.47    1.82
   4  -1  16   71.57    1.83
   4  -1  16   67.46    1.89
   4  -1  17    8.46    0.72
   4  -1  17    8.78    0.83
   4  -1  17    7.60    0.57
   4  -1  17    8.59    0.71
   4  -1  17    6.58    0.45
   4  -1  18   11.06    0.58
   4  -1  18    7.77    0.48
   4   0 -13   20.20    0.88
   4   0 -13   22.27    0.90
   4   0 -13   23.79    1.16
   4   0 -12   73.33    1.97
   4   0 -12   68.07    1.79
   4   0 -11   12.48    1.27
   4   0 -11   11.99    1.04
   4   0 -11   11.89    1.00
   4   0 -10   41.55    1.61
   4   0 -10   35.03    1.48
   4   0 -10   38.62    1.70
   4   0 -10   39.89    1.55
   4   0  -9    2.65    0.93
   4   0  -9    2.20    0.83
   4   0  -9    2.20    0.87
   4   0  -9    2.41    1.21
   4   0  -9    2.20    0.83
   4   0  -8   33.59    1.45
   4   0  -8   33.57    1.44
   4   0  -8   29.81    1.39
   4   0  -8   32.55    1.68
   4   0  -8   33.65    1.42
   4   0  -7    0.97    0.79
   4   0  -7    0.53    0.77
   4   0  -7    1.05    0.77
   4   0  -7    0.55    1.16
   4   0  -7    1.55    0.73
   4   0  -6  145.28    2.92
   4   0  -6  141.25    2.90
   4   0  -6  137.77    2.91
   4   0  -6  138.95    2.61
   4   0  -6  138.38    2.96
   4   0  -6  137.95    2.84
   4   0  -5   18.52    0.84
   4   0  -5   15.72    1.02
   4   0  -5   17.58    1.14
   4   0  -5   19.54    1.01
   4   0  -5   18.82    0.98
   4   0  -4  272.51    5.72
   4   0  -4  270.36    4.53
   4   0  -4  266.52    4.54
   4   0  -3  115.42    2.37
   4   0  -2  356.62    5.63
   4   0  -2  359.76    5.46
   4   0  -1  367.19    5.66
   4   0  -1  364.61    5.62
   4   0   0   23.45    0.90
   4   0   0   25.79    0.89
   4   0   0   26.43    0.99
   4   0   0   23.71    0.75
   4   0   0   25.77    0.90
   4   0   1   46.91    1.22
   4   0   1   45.86    1.23
   4   0   1   48.55    1.26
   4   0   1   48.00    1.22
   4   0   2  114.27    2.13
   4   0   2  113.91    2.19
   4   0   2  108.76    2.17
   4   0   3   38.26    1.07
   4   0   3   36.98    1.17
   4   0   4    3.47    0.50
   4   0   4    3.29    0.59
   4   0   4    3.06    0.50
   4   0   5  929.25   13.09
   4   0   5  892.52   13.40
   4   0   6   42.62    1.09
   4   0   6   44.12    1.16
   4   0   6   40.59    1.40
   4   0   7  473.21    7.56
   4   0   7  498.40    7.47
   4   0   7  516.48    7.33
   4   0   7  484.19    7.38
   4   0   7  469.63    7.77
   4   0   7  495.27    7.81
   4   0   7  510.53    7.52
   4   0   7  496.98    8.83
   4   0   8    2.71    0.59
   4   0   8    3.12    0.80
   4   0   8    3.46    0.64
   4   0   8    3.15    0.49
   4   0   8    3.08    0.57
   4   0   8    2.55    0.93
   4   0   8    3.52    0.79
   4   0   8    2.80    0.89
   4   0   8    3.79    0.70
   4   0   8    2.96    0.72
   4   0   8    3.02    0.73
   4   0   8    3.00    0.80
   4   0   8    3.35    0.57
   4   0   8    3.31    0.52
   4   0   9  295.58    5.31
   4   0   9  315.04    5.13
   4   0   9  316.83    5.88
   4   0   9  330.92    5.23
   4   0   9  380.01    5.51
   4   0   9  351.54    5.18
   4   0   9  332.23    5.94
   4   0   9  332.31    5.47
   4   0   9  332.54    5.46
   4   0   9  320.94    5.28
   4   0   9  293.51    5.43
   4   0  10    1.08    0.69
   4   0  10    0.51    0.66
   4   0  10    1.05    0.99
   4   0  10    0.93    0.47
   4   0  10    0.43    0.62
   4   0  10    1.18    0.64
   4   0  10    0.32    0.83
   4   0  10    0.90    1.12
   4   0  10    0.73    0.76
   4   0  10   -0.06    0.93
   4   0  11  188.95    3.88
   4   0  11  220.10    4.70
   4   0  11  223.33    3.89
   4   0  11  196.03    3.69
   4   0  11  232.54    4.75
   4   0  11  211.67    4.00
   4   0  11  215.47    3.97
   4   0  11  198.63    3.59
   4   0  11  191.54    3.88
   4   0  12   76.05    1.79
   4   0  12   87.42    2.17
   4   0  12   85.37    2.58
   4   0  12   84.47    2.30
   4   0  12   88.03    2.28
   4   0  12   79.32    2.20
   4   0  12   85.90    2.59
   4   0  13  374.78    6.57
   4   0  13  378.22    6.13
   4   0  13  432.54    7.12
   4   0  13  436.45    6.72
   4   0  13  426.77    6.81
   4   0  13  411.69    6.53
   4   0  14    0.71    0.65
   4   0  14    0.60    0.95
   4   0  14    0.80    0.76
   4   0  14    1.15    0.84
   4   0  14    0.90    0.90
   4   0  14    1.04    0.85
   4   0  14    0.49    0.68
   4   0  15  176.20    3.54
   4   0  15  172.06    3.65
   4   0  15  171.39    3.52
   4   0  16    5.39    0.88
   4   0  16    5.98    0.98
   4   0  16    4.84    0.68
   4   0  17   25.57    0.88
   4   0  17   21.19    0.71
   4   0  18   42.57    1.02
   4   0  18   50.84    1.11
   4   1 -13   89.34    1.93
   4   1 -13   87.49    1.90
   4   1 -12    6.21    1.08
   4   1 -12    5.70    0.81
   4   1 -11    7.71    1.22
   4   1 -11    7.14    0.94
   4   1 -10   83.01    2.36
   4   1 -10   81.97    2.23
   4   1 -10   79.58    2.25
   4   1  -9   15.15    1.16
   4   1  -9   14.92    1.12
   4   1  -9   14.96    1.41
   4   1  -8    0.81    0.85
   4   1  -8    0.33    0.75
   4   1  -8    0.88    1.21
   4   1  -7  272.27    4.81
   4   1  -7  273.93    4.83
   4   1  -7  274.38    4.86
   4   1  -7  269.26    4.80
   4   1  -6   53.10    1.62
   4   1  -6   50.66    1.59
   4   1  -6   48.73    1.71
   4   1  -6   50.79    1.57
   4   1  -6   49.34    1.33
   4   1  -5  397.35    6.16
   4   1  -5  390.52    6.17
   4   1  -5  393.08    5.94
   4   1  -5  372.95    6.09
   4   1  -5  377.38    6.10
   4   1  -4   15.71    1.03
   4   1  -4   14.60    1.35
   4   1  -4   13.70    0.94
   4   1  -3  539.62    7.62
   4   1  -3  542.62    7.87
   4   1  -2  171.53    2.93
   4   1  -2  168.97    2.97
   4   1  -1    7.79    0.54
   4   1  -1    7.43    0.63
   4   1  -1    7.96    0.74
   4   1   0  112.03    2.05
   4   1   0  114.32    2.20
   4   1   0  112.84    2.20
   4   1   0  120.95    2.27
   4   1   0  118.57    2.20
   4   1   1   13.70    0.59
   4   1   1   15.25    0.76
   4   1   1   14.35    0.72
   4   1   1   13.57    0.71
   4   1   1   14.33    0.81
   4   1   2  107.05    1.93
   4   1   2  109.58    2.19
   4   1   3  775.73   10.07
   4   1   3  750.18   10.12
   4   1   4    5.40    0.56
   4   1   4    4.63    0.60
   4   1   5   44.12    1.17
   4   1   5   47.35    1.22
   4   1   5   44.08    1.34
   4   1   6  338.13    5.28
   4   1   6  347.05    5.64
   4   1   7  317.93    5.19
   4   1   7  323.38    5.39
   4   1   7  313.59    5.01
   4   1   7  323.67    5.41
   4   1   7  311.98    4.90
   4   1   8  526.82    8.83
   4   1   8  625.35    8.73
   4   1   8  598.01    8.99
   4   1   8  587.74    8.78
   4   1   8  622.52    8.77
   4   1   8  571.56    9.24
   4   1   8  667.08    8.85
   4   1   8  604.48    8.88
   4   1   8  609.82    9.31
   4   1   8  597.48    9.06
   4   1   8  607.76    9.09
   4   1   8  570.98   10.24
   4   1   9    2.08    0.64
   4   1   9    1.27    0.48
   4   1   9    1.38    0.57
   4   1   9    1.05    0.62
   4   1   9    0.75    0.79
   4   1   9    0.65    0.79
   4   1   9    1.00    0.69
   4   1   9    1.18    0.75
   4   1   9    1.23    0.50
   4   1   9    1.53    0.73
   4   1   9    1.20    0.74
   4   1   9    0.89    0.47
   4   1  10  199.79    3.91
   4   1  10  195.86    3.56
   4   1  10  227.91    4.40
   4   1  10  242.51    4.04
   4   1  10  234.61    3.75
   4   1  10  222.36    4.35
   4   1  10  217.66    4.09
   4   1  10  217.42    4.09
   4   1  10  193.06    4.03
   4   1  10  211.41    3.83
   4   1  11    2.47    0.75
   4   1  11    1.61    0.88
   4   1  11    1.96    0.70
   4   1  11    2.18    0.70
   4   1  11    2.15    0.69
   4   1  11    2.52    0.97
   4   1  11    2.40    0.95
   4   1  11    1.75    0.87
   4   1  11    2.34    1.05
   4   1  12  452.49    7.70
   4   1  12  443.56    7.05
   4   1  12  471.77    7.69
   4   1  12  470.76    7.47
   4   1  12  480.35    7.38
   4   1  12  426.68    7.31
   4   1  12  427.74    6.78
   4   1  12  456.84    7.20
   4   1  13   34.14    1.41
   4   1  13   35.42    1.38
   4   1  13   33.53    1.16
   4   1  13   35.74    1.60
   4   1  13   34.84    1.59
   4   1  13   39.26    1.58
   4   1  13   34.78    1.54
   4   1  14  249.36    4.25
   4   1  14  256.14    4.87
   4   1  14  268.02    4.88
   4   1  14  271.05    4.68
   4   1  14  263.68    4.79
   4   1  14  264.47    4.58
   4   1  15   96.72    2.38
   4   1  15   94.18    2.34
   4   1  15   96.10    2.06
   4   1  15   94.00    2.60
   4   1  16  124.44    2.85
   4   1  16  120.15    2.52
   4   1  16  121.98    2.49
   4   1  16  129.93    2.67
   4   1  17    5.64    0.79
   4   1  17    6.20    0.86
   4   1  18   14.08    0.73
   4   1  18   11.85    0.69
   4   2 -13    4.98    0.70
   4   2 -12   88.77    2.23
   4   2 -12   93.92    2.22
   4   2 -11   12.26    1.08
   4   2 -10   32.50    1.65
   4   2 -10   29.81    1.48
   4   2  -9   15.67    1.44
   4   2  -9   14.20    1.26
   4   2  -9   13.48    0.87
   4   2  -9   15.88    1.18
   4   2  -8  217.93    4.13
   4   2  -8  217.72    4.17
   4   2  -8  211.11    4.10
   4   2  -7    0.70    0.76
   4   2  -7   -0.01    1.18
   4   2  -7    0.07    1.14
   4   2  -7    0.97    0.83
   4   2  -6  240.65    3.98
   4   2  -6  248.52    4.36
   4   2  -6  245.52    4.36
   4   2  -6  235.04    4.22
   4   2  -6  249.01    4.36
   4   2  -5   17.65    1.19
   4   2  -5   18.18    1.06
   4   2  -5   19.43    0.86
   4   2  -5   19.60    1.03
   4   2  -4   36.37    1.13
   4   2  -4   37.64    1.11
   4   2  -4   37.08    1.35
   4   2  -4   36.85    1.91
   4   2  -3   14.95    0.99
   4   2  -3   16.12    1.44
   4   2  -3   15.27    0.74
   4   2  -3   16.31    0.77
   4   2  -2  190.83    3.40
   4   2  -2  193.07    3.20
   4   2  -1   35.65    1.20
   4   2  -1   36.40    1.10
   4   2  -1   34.95    1.01
   4   2   0  374.25    5.67
   4   2   0  364.95    5.61
   4   2   0  361.37    5.47
   4   2   1   95.36    1.96
   4   2   1  101.32    2.04
   4   2   1  102.76    2.04
   4   2   1   97.85    1.84
   4   2   2  198.84    3.29
   4   2   2  201.42    3.31
   4   2   2  193.65    3.26
   4   2   2  196.97    3.29
   4   2   2  199.64    3.32
   4   2   3  226.24    3.62
   4   2   3  236.62    3.63
   4   2   3  212.19    3.54
   4   2   3  218.59    3.59
   4   2   3  201.98    3.30
   4   2   4  253.93    3.92
   4   2   4  257.05    3.98
   4   2   4  263.27    3.93
   4   2   4  216.32    3.52
   4   2   4  229.39    3.68
   4   2   5  416.04    5.99
   4   2   5  397.76    6.00
   4   2   5  386.13    6.06
   4   2   5  399.80    5.94
   4   2   5  370.20    5.77
   4   2   6  161.69    2.76
   4   2   6  161.97    2.98
   4   2   6  161.33    2.78
   4   2   7  389.53    5.77
   4   2   7  396.74    5.83
   4   2   7  395.33    6.13
   4   2   7  380.11    7.45
   4   2   7  387.36    5.78
   4   2   8  114.38    2.24
   4   2   8  118.39    2.19
   4   2   8  111.67    2.46
   4   2   8  109.39    2.18
   4   2   8  113.01    2.15
   4   2   8  102.42    2.43
   4   2   8  123.37    2.29
   4   2   8  117.26    2.35
   4   2   8  107.04    2.46
   4   2   8  111.82    2.20
   4   2   8  100.63    3.22
   4   2   8  103.71    2.07
   4   2   9  112.63    2.51
   4   2   9  107.23    2.23
   4   2   9  105.82    2.58
   4   2   9  109.06    2.21
   4   2   9  111.47    2.59
   4   2   9  117.91    2.45
   4   2   9  117.02    2.26
   4   2  10   19.90    1.15
   4   2  10   17.52    1.10
   4   2  10   19.67    1.08
   4   2  10   20.79    0.96
   4   2  10   21.22    1.13
   4   2  10   19.04    1.17
   4   2  10   18.94    1.24
   4   2  10   19.19    1.07
   4   2  11  169.47    3.29
   4   2  11  174.64    3.67
   4   2  11  181.04    3.47
   4   2  11  185.66    3.26
   4   2  11  179.42    3.44
   4   2  11  175.19    3.66
   4   2  11  180.02    3.65
   4   2  11  182.54    3.63
   4   2  12    9.08    0.96
   4   2  12    8.56    0.79
   4   2  12    8.39    0.87
   4   2  12    9.70    1.01
   4   2  12    9.43    1.11
   4   2  12    9.75    1.16
   4   2  12    7.98    0.79
   4   2  12    9.64    0.92
   4   2  13  147.60    3.25
   4   2  13  150.56    3.31
   4   2  13  153.55    3.21
   4   2  13  140.92    3.25
   4   2  13  142.63    2.74
   4   2  13  144.44    3.02
   4   2  14  125.25    2.82
   4   2  14  116.32    2.76
   4   2  14  126.29    2.93
   4   2  14  128.61    2.81
   4   2  14  125.26    2.84
   4   2  14  120.22    2.42
   4   2  14  117.28    2.61
   4   2  15   51.27    1.42
   4   2  15   46.53    1.54
   4   2  16  103.06    2.57
   4   2  16   97.88    2.18
   4   2  16  105.05    2.36
   4   2  17   90.30    2.22
   4   2  17   99.00    2.20
   4   2  18    3.77    0.56
   4   3 -13   88.69    1.95
   4   3 -12    3.08    0.81
   4   3 -11   55.12    1.84
   4   3 -10   11.19    1.34
   4   3 -10   10.01    1.13
   4   3  -9   45.68    1.87
   4   3  -9   43.50    1.69
   4   3  -8   13.24    1.42
   4   3  -8   13.21    1.28
   4   3  -8   11.73    0.83
   4   3  -7  593.81    9.01
   4   3  -7  595.88    8.94
   4   3  -6   39.60    1.67
   4   3  -6   39.85    1.56
   4   3  -5  110.65    2.44
   4   3  -5  101.85    2.27
   4   3  -5  109.09    2.21
   4   3  -5  107.71    2.12
   4   3  -4   11.77    0.75
   4   3  -4   12.77    0.74
   4   3  -4   10.99    1.06
   4   3  -4   12.10    0.95
   4   3  -4   10.66    1.26
   4   3  -4   10.24    0.64
   4   3  -3  204.30    3.44
   4   3  -3  193.60    3.48
   4   3  -3  197.36    4.93
   4   3  -3  200.03    3.39
   4   3  -3  197.53    3.65
   4   3  -2  641.49    9.32
   4   3  -2  623.69   11.27
   4   3  -2  640.28    9.36
   4   3  -2  655.69    9.57
   4   3  -1   91.39    1.84
   4   3  -1   87.50    1.90
   4   3  -1   91.76    2.01
   4   3   0  228.78    3.73
   4   3   0  229.22    3.81
   4   3   1   27.94    0.86
   4   3   1   25.94    1.04
   4   3   1   27.71    1.04
   4   3   2  168.97    2.93
   4   3   2  162.72    2.84
   4   3   2  170.38    2.89
   4   3   2  162.56    2.88
   4   3   3  266.05    4.20
   4   3   3  270.80    4.31
   4   3   3  265.47    4.26
   4   3   3  279.39    4.31
   4   3   4   99.61    1.92
   4   3   4   99.05    2.04
   4   3   4  102.97    1.99
   4   3   4   96.56    1.96
   4   3   5   38.64    1.08
   4   3   5   38.12    1.20
   4   3   5   39.60    1.12
   4   3   5   41.46    1.14
   4   3   5   38.80    1.14
   4   3   6  462.68    7.05
   4   3   6  485.59    7.08
   4   3   6  485.70    9.02
   4   3   6  490.38    7.05
   4   3   6  472.61    7.10
   4   3   6  466.99    7.19
   4   3   7  497.58    7.98
   4   3   7  528.33    8.05
   4   3   7  550.25    8.21
   4   3   7  554.67    8.00
   4   3   7  546.90    7.94
   4   3   7  576.89    8.17
   4   3   7  572.75    8.02
   4   3   7  544.90    9.94
   4   3   7  540.16    8.01
   4   3   8  186.98    3.18
   4   3   8  194.81    3.12
   4   3   8  164.57    3.09
   4   3   8  165.13    2.97
   4   3   8  169.36    3.27
   4   3   8  170.56    3.04
   4   3   8  196.27    3.23
   4   3   8  175.98    3.31
   4   3   8  186.15    3.30
   4   3   8  184.34    3.13
   4   3   8  156.68    4.34
   4   3   8  163.29    3.00
   4   3   9   25.10    1.00
   4   3   9   20.30    1.18
   4   3   9   20.85    0.85
   4   3   9   21.91    1.06
   4   3   9   21.17    1.09
   4   3   9   25.14    1.17
   4   3   9   23.16    1.03
   4   3   9   25.53    0.96
   4   3  10  156.73    3.28
   4   3  10  150.92    3.29
   4   3  10  152.67    3.23
   4   3  11   12.23    0.88
   4   3  11   12.14    0.96
   4   3  11   13.31    1.08
   4   3  11   11.20    0.96
   4   3  11   11.30    1.18
   4   3  11   12.02    0.98
   4   3  11   12.34    0.94
   4   3  12  159.94    3.04
   4   3  12  161.34    3.31
   4   3  12  164.07    3.49
   4   3  12  165.85    3.43
   4   3  12  143.71    3.23
   4   3  12  145.14    2.97
   4   3  12  159.72    3.19
   4   3  13   21.96    1.03
   4   3  13   20.95    1.11
   4   3  13   22.64    1.39
   4   3  13   23.69    1.38
   4   3  14   80.29    1.83
   4   3  14   72.96    1.96
   4   3  14   78.86    2.31
   4   3  14   79.46    2.31
   4   3  14   81.36    2.18
   4   3  15   19.45    0.97
   4   3  16  106.09    2.17
   4   3  16  109.35    2.44
   4   3  17    2.60    0.76
   4   3  17    3.17    0.71
   4   3  17    3.05    0.60
   4   3  18   18.98    0.87
   4   4 -13   36.14    1.19
   4   4 -12   54.04    1.65
   4   4 -11   30.46    1.31
   4   4 -11   34.08    1.49
   4   4 -10  297.92    5.19
   4   4 -10  291.80    5.01
   4   4  -9    9.11    1.34
   4   4  -9    8.96    1.20
   4   4  -8   48.64    1.78
   4   4  -8   49.03    1.92
   4   4  -8   44.44    1.91
   4   4  -7    7.90    1.61
   4   4  -7    6.96    1.18
   4   4  -7    5.74    1.30
   4   4  -7    5.64    0.72
   4   4  -6   81.77    2.38
   4   4  -6   83.23    2.25
   4   4  -6   79.36    2.12
   4   4  -6   77.43    1.86
   4   4  -6   78.28    1.81
   4   4  -5    9.82    1.06
   4   4  -5    9.38    1.18
   4   4  -5    9.15    1.18
   4   4  -5    7.62    0.69
   4   4  -5    9.09    0.79
   4   4  -4   78.37    2.92
   4   4  -4   78.38    1.77
   4   4  -4   78.47    2.03
   4   4  -4   77.10    1.89
   4   4  -4   78.41    1.81
   4   4  -3   14.24    0.79
   4   4  -3   16.33    1.56
   4   4  -3   19.23    0.91
   4   4  -3   20.52    0.85
   4   4  -3   19.00    1.03
   4   4  -3   17.98    0.86
   4   4  -2  306.24    4.82
   4   4  -2  313.09    5.11
   4   4  -2  302.66    4.87
   4   4  -2  303.44    6.73
   4   4  -2  313.03    4.90
   4   4  -1    5.25    0.76
   4   4  -1    5.95    0.79
   4   4  -1    5.32    1.22
   4   4  -1    5.66    0.58
   4   4   0  447.11    6.75
   4   4   0  438.13    6.68
   4   4   1  136.41    2.53
   4   4   1  131.66    2.53
   4   4   1  129.36    4.01
   4   4   2  567.22    8.10
   4   4   2  559.44    8.18
   4   4   2  586.80   10.44
   4   4   3  624.58    8.93
   4   4   3  630.68    8.99
   4   4   3  605.64    9.01
   4   4   3  617.36   11.17
   4   4   3  620.99    8.98
   4   4   4  551.03    8.23
   4   4   4  580.13    8.28
   4   4   4  566.65    8.33
   4   4   4  586.73   10.56
   4   4   4  572.37    8.31
   4   4   5   75.25    1.61
   4   4   5   77.49    1.66
   4   4   5   71.78    1.60
   4   4   5   76.36    1.74
   4   4   5   77.07    3.01
   4   4   5   73.05    1.66
   4   4   6   33.49    1.00
   4   4   6   33.18    1.00
   4   4   6   32.09    1.03
   4   4   6   33.04    1.09
   4   4   6   36.04    1.19
   4   4   6   34.17    2.11
   4   4   7  375.41    5.45
   4   4   7  374.50    5.38
   4   4   7  314.59    5.23
   4   4   7  322.95    5.17
   4   4   7  316.63    5.33
   4   4   7  364.04    5.50
   4   4   7  362.08    5.38
   4   4   7  333.50    5.32
   4   4   7  319.13    7.13
   4   4   8   85.78    1.88
   4   4   8   90.82    1.85
   4   4   8   76.09    1.66
   4   4   8   77.56    1.84
   4   4   8   88.15    1.93
   4   4   8   84.97    2.03
   4   4   8   84.78    1.88
   4   4   8   71.59    2.90
   4   4   8   77.11    1.77
   4   4   9  348.12    5.17
   4   4   9  269.80    4.88
   4   4   9  293.33    5.13
   4   4   9  346.37    5.11
   4   4   9  341.70    5.34
   4   4   9  332.90    5.11
   4   4  10   20.41    0.98
   4   4  10   20.93    1.20
   4   4  10   19.54    0.93
   4   4  11  227.63    3.92
   4   4  11  220.91    4.17
   4   4  11  227.02    4.15
   4   4  11  225.58    4.14
   4   4  12   19.18    1.04
   4   4  12   17.57    1.09
   4   4  12   20.38    1.28
   4   4  12   20.60    1.40
   4   4  12   18.21    1.07
   4   4  13   31.42    1.60
   4   4  13   32.13    1.52
   4   4  13   29.58    1.26
   4   4  13   34.26    1.21
   4   4  13   29.67    1.24
   4   4  14   11.81    0.85
   4   4  14   10.21    0.84
   4   4  14   10.83    1.15
   4   4  14   11.26    1.11
   4   4  15  188.04    3.30
   4   4  16    2.21    0.78
   4   4  16    2.49    0.80
   4   4  16    2.39    0.71
   4   4  17   73.78    1.95
   4   4  17   78.63    1.80
   4   4  18    2.06    0.55
   4   5 -13   57.63    1.44
   4   5 -12   10.82    0.94
   4   5 -12    7.61    0.70
   4   5 -11   81.56    2.02
   4   5 -11   90.32    2.30
   4   5  -9  126.80    2.80
   4   5  -9  117.64    2.73
   4   5  -8    8.97    1.33
   4   5  -8   10.19    1.38
   4   5  -8    9.75    1.23
   4   5  -7  268.27    4.91
   4   5  -7  272.03    4.83
   4   5  -7  278.95    5.02
   4   5  -6   16.74    1.43
   4   5  -6   17.31    1.28
   4   5  -6   17.71    1.49
   4   5  -6   18.71    0.91
   4   5  -6   16.78    0.86
   4   5  -5  122.56    2.76
   4   5  -5  119.01    2.63
   4   5  -5  118.62    2.70
   4   5  -5  125.98    2.52
   4   5  -5  120.30    2.35
   4   5  -4    0.77    1.00
   4   5  -4    0.92    0.91
   4   5  -4    0.98    0.56
   4   5  -4    1.01    0.60
   4   5  -3  356.84    5.82
   4   5  -3  374.03    7.96
   4   5  -3  390.82    5.82
   4   5  -3  379.92    5.95
   4   5  -3  376.04    5.95
   4   5  -3  401.57    6.00
   4   5  -2   81.19    1.73
   4   5  -2   78.17    3.15
   4   5  -2   77.31    1.78
   4   5  -2   80.39    1.98
   4   5  -1  412.18    6.02
   4   5  -1  417.13    6.29
   4   5   0   36.98    1.26
   4   5   0   36.87    2.27
   4   5   0   36.06    1.19
   4   5   1  121.14    2.39
   4   5   1  127.27    4.03
   4   5   1  119.22    2.36
   4   5   2   38.51    1.27
   4   5   2   36.65    2.30
   4   5   2   37.99    1.12
   4   5   2   36.60    1.14
   4   5   3  257.11    4.25
   4   5   3  258.12    6.23
   4   5   3  262.71    4.23
   4   5   4   19.97    1.03
   4   5   4   19.08    1.77
   4   5   4   20.28    0.89
   4   5   4   19.25    0.73
   4   5   5  129.22    2.54
   4   5   5  134.80    4.22
   4   5   5  133.86    2.57
   4   5   5  130.38    2.42
   4   5   6  159.32    2.96
   4   5   6  165.73    2.85
   4   5   6  162.11    2.83
   4   5   6  169.90    3.10
   4   5   6  176.45    3.08
   4   5   6  172.93    4.85
   4   5   7  112.01    2.27
   4   5   7  119.07    2.24
   4   5   7  113.17    2.35
   4   5   7  109.66    2.26
   4   5   7  108.95    2.26
   4   5   7  101.85    3.70
   4   5   8  113.10    2.30
   4   5   8  118.09    2.24
   4   5   8   89.34    1.94
   4   5   8  118.66    2.32
   4   5   8  114.88    2.29
   4   5   8   97.33    3.56
   4   5   8  116.73    2.35
   4   5   9   56.86    1.56
   4   5   9   58.00    1.50
   4   5   9   56.81    1.73
   4   5   9   57.22    1.59
   4   5  10  237.62    4.07
   4   5  10  247.89    4.35
   4   5  10  240.02    4.14
   4   5  10  232.67    4.11
   4   5  11    3.27    0.71
   4   5  11    2.42    0.94
   4   5  11    2.19    0.88
   4   5  12  441.90    6.89
   4   5  12  441.03    7.15
   4   5  12  432.99    7.03
   4   5  13    8.80    1.05
   4   5  13    8.54    1.13
   4   5  13    8.89    0.82
   4   5  13    6.94    0.82
   4   5  13    7.92    0.84
   4   5  14   81.05    2.05
   4   5  14   95.08    2.00
   4   5  14   90.08    2.46
   4   5  14   85.79    2.30
   4   5  15    0.41    0.63
   4   5  16   29.09    1.25
   4   5  16   25.91    1.11
   4   5  16   29.05    1.28
   4   5  17    0.47    0.53
   4   5  17    0.38    0.63
   4   5  17    0.33    0.51
   4   5  18   39.65    1.18
   4   5  18   44.57    1.11
   4   6 -13    1.97    0.50
   4   6 -12   20.82    1.03
   4   6 -11    5.66    0.72
   4   6 -11    6.82    0.92
   4   6 -11    7.56    0.98
   4   6 -10   59.27    1.98
   4   6  -9   15.96    1.26
   4   6  -9   15.82    1.29
   4   6  -8   49.68    1.83
   4   6  -8   48.18    1.89
   4   6  -7    2.94    0.59
   4   6  -7    3.95    1.18
   4   6  -7    4.16    1.34
   4   6  -6  224.36    4.03
   4   6  -6  233.78    4.28
   4   6  -6  238.72    4.38
   4   6  -5   20.30    0.90
   4   6  -5   21.54    0.99
   4   6  -5   19.81    1.33
   4   6  -5   19.45    1.43
   4   6  -4   56.07    1.42
   4   6  -4   56.75    1.76
   4   6  -4   53.71    1.79
   4   6  -4   54.65    1.55
   4   6  -3   74.49    1.83
   4   6  -3   79.52    3.25
   4   6  -3   85.40    1.78
   4   6  -3   76.65    1.83
   4   6  -3   81.48    2.03
   4   6  -3   77.60    2.04
   4   6  -3   86.73    1.94
   4   6  -2  146.95    2.64
   4   6  -2  140.33    2.77
   4   6  -2  138.53    4.48
   4   6  -2  150.03    2.97
   4   6  -1    6.51    0.66
   4   6  -1    6.82    0.85
   4   6  -1    8.31    1.47
   4   6  -1    6.12    0.81
   4   6   0  442.41    9.05
   4   6   0  433.51    6.52
   4   6   1   10.94    0.95
   4   6   1   12.67    1.64
   4   6   1   11.28    0.78
   4   6   2  240.80    3.95
   4   6   2  247.69    4.03
   4   6   3    6.37    1.03
   4   6   3    7.17    0.89
   4   6   3    6.55    1.47
   4   6   3    6.35    0.67
   4   6   4  191.40    3.39
   4   6   4  202.34    3.51
   4   6   4  196.68    3.51
   4   6   5   46.81    1.50
   4   6   5   45.40    1.20
   4   6   5   47.60    1.42
   4   6   5   48.09    1.47
   4   6   6  154.78    2.92
   4   6   6  147.22    4.30
   4   6   6  153.44    2.92
   4   6   6  151.37    4.72
   4   6   6  150.44    3.00
   4   6   6  140.53    2.84
   4   6   6  149.26    2.96
   4   6   7  339.32    5.46
   4   6   7  335.22    5.53
   4   6   7  367.70    5.45
   4   6   7  347.60    5.49
   4   6   7  303.86    7.17
   4   6   7  336.10    5.48
   4   6   7  326.49    7.64
   4   6   8   93.46    2.10
   4   6   8  100.92    2.08
   4   6   8   97.65    2.17
   4   6   8   80.80    3.39
   4   6   8   94.40    2.14
   4   6   8   83.40    3.46
   4   6   8   96.29    2.16
   4   6   9  130.12    2.51
   4   6   9  127.20    2.59
   4   6   9  124.22    2.58
   4   6  10  239.61    4.20
   4   6  10  245.02    4.23
   4   6  10  256.73    4.53
   4   6  10  254.76    4.32
   4   6  11  114.97    2.65
   4   6  11  107.74    2.33
   4   6  12   28.56    1.18
   4   6  12   26.86    1.27
   4   6  12   31.36    1.45
   4   6  12   27.38    1.33
   4   6  13  159.08    3.25
   4   6  13  159.41    3.41
   4   6  13  169.82    2.97
   4   6  13  147.97    3.11
   4   6  13  146.89    2.99
   4   6  14    3.52    0.68
   4   6  14    2.16    0.62
   4   6  14    2.89    0.90
   4   6  16    1.54    0.83
   4   6  16    1.97    0.78
   4   6  16    1.46    0.66
   4   6  17   64.86    1.41
   4   6  17   60.06    1.53
   4   6  18    4.92    0.51
   4   6  18    4.23    0.53
   4   7 -12    0.60    0.58
   4   7 -11    2.12    0.59
   4   7 -11    1.37    0.75
   4   7 -10    0.98    0.65
   4   7 -10    1.06    0.85
   4   7  -9    5.12    0.79
   4   7  -8    6.01    0.86
   4   7  -8    6.24    1.23
   4   7  -8    7.04    1.16
   4   7  -7   57.58    1.76
   4   7  -7   58.90    1.58
   4   7  -7   60.96    1.98
   4   7  -7   61.07    2.05
   4   7  -6    6.26    0.88
   4   7  -6    6.62    1.31
   4   7  -6    6.32    1.20
   4   7  -5   76.09    2.01
   4   7  -5   75.77    1.92
   4   7  -5   77.28    2.22
   4   7  -5   79.72    2.29
   4   7  -4   33.78    1.30
   4   7  -4   34.52    1.53
   4   7  -4   34.05    1.60
   4   7  -4   40.06    1.31
   4   7  -4   42.14    3.16
   4   7  -3  362.32    5.91
   4   7  -3  344.75    5.60
   4   7  -3  368.06    5.72
   4   7  -3  379.94    9.42
   4   7  -3  332.72    5.56
   4   7  -3  344.70    7.99
   4   7  -2    0.04    0.59
   4   7  -2    0.20    0.71
   4   7  -2    0.67    0.76
   4   7  -2    0.59    1.20
   4   7  -2   -0.04    0.58
   4   7  -1  454.48    7.24
   4   7  -1  479.10    7.26
   4   7  -1  451.04    9.82
   4   7  -1  481.06    7.16
   4   7   0   42.73    1.43
   4   7   0   41.59    2.63
   4   7   1  458.63    7.01
   4   7   1  439.67    6.83
   4   7   2  218.32    3.71
   4   7   2  212.83    3.66
   4   7   2  214.25    3.77
   4   7   3   77.16    1.97
   4   7   3   76.45    3.54
   4   7   3   76.38    1.83
   4   7   3   70.31    1.91
   4   7   4   56.36    1.67
   4   7   4   57.48    3.08
   4   7   4   55.24    1.44
   4   7   4   58.45    1.60
   4   7   4   58.15    1.59
   4   7   4   54.67    1.69
   4   7   5    8.58    0.80
   4   7   5   10.16    0.80
   4   7   5    8.26    0.95
   4   7   5    7.50    1.59
   4   7   5    9.26    0.82
   4   7   5    9.17    1.13
   4   7   6   43.32    1.37
   4   7   6   43.69    1.32
   4   7   6   40.17    2.36
   4   7   6   40.23    1.42
   4   7   6   40.05    2.62
   4   7   6   43.34    1.49
   4   7   6   39.73    1.53
   4   7   6   40.82    1.43
   4   7   7  284.11    4.93
   4   7   7  265.50    6.76
   4   7   7  284.76    4.77
   4   7   7  268.45    6.96
   4   7   7  288.65    4.64
   4   7   7  284.30    4.69
   4   7   7  289.53    4.84
   4   7   7  297.21    4.80
   4   7   7  263.90    4.65
   4   7   8  116.89    2.32
   4   7   8  109.38    2.34
   4   7   8  109.55    2.41
   4   7   8  117.11    2.47
   4   7   8  100.96    4.01
   4   7   8  113.76    2.46
   4   7   8   97.77    3.94
   4   7   9   54.34    1.60
   4   7   9   52.69    3.11
   4   7   9   60.29    1.67
   4   7   9   48.15    2.72
   4   7   9   58.66    1.70
   4   7   9   57.32    1.56
   4   7  10    4.12    1.03
   4   7  10    4.40    0.88
   4   7  10    3.72    0.73
   4   7  11  141.74    3.04
   4   7  11  128.44    2.65
   4   7  12   17.08    1.24
   4   7  12   16.19    0.94
   4   7  13   77.92    2.04
   4   7  13   77.72    1.92
   4   7  14  102.08    2.32
   4   7  14  105.40    2.60
   4   7  15    0.22    0.46
   4   7  15    0.99    0.74
   4   7  15    0.26    0.81
   4   7  16   39.02    1.40
   4   7  16   37.29    1.25
   4   7  17   18.97    0.84
   4   7  17   15.99    0.71
   4   7  17   17.84    0.89
   4   7  18   30.55    0.82
   4   7  18   23.92    0.80
   4   8 -12    2.54    0.47
   4   8 -11   14.47    0.73
   4   8 -11   14.89    0.89
   4   8 -10    1.29    0.60
   4   8 -10    1.13    0.76
   4   8  -9   80.54    2.18
   4   8  -8   63.81    1.79
   4   8  -8   68.10    2.09
   4   8  -7    9.36    0.69
   4   8  -7    8.18    0.92
   4   8  -6  150.66    3.13
   4   8  -6  159.17    3.04
   4   8  -6  158.92    3.38
   4   8  -5    1.36    1.66
   4   8  -5    2.46    0.79
   4   8  -4   78.22    1.95
   4   8  -4   73.62    4.55
   4   8  -4   79.94    2.17
   4   8  -4   73.51    1.96
   4   8  -3    1.17    0.75
   4   8  -3    1.83    0.63
   4   8  -3    2.31    2.52
   4   8  -3    1.93    0.78
   4   8  -3    2.22    1.21
   4   8  -3    1.15    0.68
   4   8  -2   16.51    1.04
   4   8  -2   17.65    2.36
   4   8  -2   17.67    0.97
   4   8  -2   17.03    1.09
   4   8  -2   17.00    2.00
   4   8  -1   15.83    0.88
   4   8  -1   17.98    1.10
   4   8  -1   17.15    2.05
   4   8  -1   15.69    0.95
   4   8   0  538.05    8.21
   4   8   0  581.14    8.23
   4   8   0  570.57    8.53
   4   8   0  554.00   11.59
   4   8   0  538.96    8.34
   4   8   1    2.02    0.93
   4   8   1    3.38    1.56
   4   8   1    1.09    0.55
   4   8   2  337.06    5.60
   4   8   2  330.74    5.18
   4   8   2  324.30    5.38
   4   8   3   57.74    1.89
   4   8   3   56.18    3.47
   4   8   3   61.48    1.48
   4   8   3   60.68    1.64
   4   8   3   55.65    1.62
   4   8   3   57.88    1.80
   4   8   4  152.12    3.17
   4   8   4  157.02    5.48
   4   8   4  155.83    2.95
   4   8   4  152.74    3.04
   4   8   4  148.16    3.01
   4   8   5   38.00    1.33
   4   8   5   40.38    1.29
   4   8   5   36.98    1.48
   4   8   5   36.21    2.73
   4   8   5   38.81    1.40
   4   8   5   38.28    1.56
   4   8   6  241.75    4.27
   4   8   6  261.43    4.26
   4   8   6  256.13    6.57
   4   8   6  251.93    4.45
   4   8   6  243.59    6.83
   4   8   6  252.69    4.48
   4   8   6  248.24    4.33
   4   8   6  261.89    4.56
   4   8   7  125.63    2.81
   4   8   7  120.59    2.51
   4   8   7  123.64    2.47
   4   8   7  118.83    4.37
   4   8   7  126.04    2.69
   4   8   7  118.29    4.52
   4   8   7  125.49    2.68
   4   8   7  131.89    2.71
   4   8   7  121.02    2.68
   4   8   8  167.05    3.14
   4   8   8  165.65    5.42
   4   8   8  182.64    3.40
   4   8   8  158.22    5.32
   4   8   8  169.56    3.32
   4   8   8  181.74    3.38
   4   8   8  177.69    3.57
   4   8   9   29.99    1.22
   4   8   9   31.38    2.50
   4   8   9   31.02    1.31
   4   8   9   25.61    2.22
   4   8   9   31.34    1.34
   4   8   9   28.40    1.14
   4   8  10   67.69    1.75
   4   8  10   69.71    3.64
   4   8  10   74.83    1.96
   4   8  11  115.85    2.75
   4   8  11  118.94    2.57
   4   8  12    9.17    1.08
   4   8  12    8.52    0.77
   4   8  12    8.85    0.77
   4   8  13  311.30    5.24
   4   8  13  296.06    4.90
   4   8  13  287.20    5.09
   4   8  13  322.42    4.88
   4   8  14    7.52    0.80
   4   8  15   55.91    1.43
   4   8  15   57.48    1.69
   4   8  16   10.17    0.88
   4   8  16    9.39    0.76
   4   8  17   25.42    0.94
   4   8  17   28.01    0.94
   4   8  18    1.10    0.31
   4   9 -10  121.12    2.30
   4   9 -10  126.70    2.49
   4   9  -9   41.07    1.28
   4   9  -9   39.54    1.43
   4   9  -8   51.54    1.70
   4   9  -7  166.82    3.08
   4   9  -7  173.05    3.31
   4   9  -7  177.05    3.54
   4   9  -6    7.94    0.70
   4   9  -6    6.89    0.86
   4   9  -6    8.21    1.01
   4   9  -5    2.03    0.59
   4   9  -5    1.90    0.77
   4   9  -4   22.89    2.91
   4   9  -4   22.13    1.15
   4   9  -4   22.67    1.23
   4   9  -3  103.81    2.37
   4   9  -3  105.53    2.47
   4   9  -3  105.30    4.23
   4   9  -2    5.78    0.79
   4   9  -2    4.86    0.79
   4   9  -2    4.78    1.76
   4   9  -2    5.27    0.93
   4   9  -2    5.44    1.51
   4   9  -1   87.06    2.22
   4   9  -1   82.13    3.97
   4   9  -1   80.72    1.97
   4   9   0   55.98    1.80
   4   9   0   54.89    3.37
   4   9   0   57.11    1.56
   4   9   1  143.82    2.84
   4   9   1  157.56    3.21
   4   9   1  162.57    3.29
   4   9   1  147.28    5.53
   4   9   2   31.52    1.24
   4   9   2   35.18    1.69
   4   9   2   31.93    1.14
   4   9   2   33.48    1.19
   4   9   2   35.44    1.66
   4   9   3  138.86    2.74
   4   9   3  144.17    2.85
   4   9   3  135.62    2.71
   4   9   3  154.90    3.00
   4   9   3  150.50    3.05
   4   9   4   96.02    2.19
   4   9   4   99.31    2.68
   4   9   4   94.30    2.10
   4   9   4   96.01    2.27
   4   9   4   95.50    2.35
   4   9   5   44.03    1.39
   4   9   5   43.38    1.33
   4   9   5   45.09    1.74
   4   9   5   45.95    3.25
   4   9   5   46.54    1.56
   4   9   5   44.48    1.73
   4   9   6   49.83    1.46
   4   9   6   53.12    1.45
   4   9   6   50.23    1.77
   4   9   6   50.09    3.20
   4   9   6   50.07    1.67
   4   9   6   51.94    1.83
   4   9   6   54.86    1.73
   4   9   7  208.65    3.93
   4   9   7  196.05    3.46
   4   9   7  201.55    6.03
   4   9   7  200.94    3.78
   4   9   7  185.88    6.04
   4   9   7  201.50    3.71
   4   9   7  213.90    3.79
   4   9   7  204.09    3.74
   4   9   8    3.82    0.65
   4   9   8    4.74    1.55
   4   9   8    4.88    0.94
   4   9   8    5.58    1.57
   4   9   8    4.46    0.80
   4   9   8    4.50    0.95
   4   9   8    5.18    0.90
   4   9   9   59.59    1.65
   4   9   9   62.40    3.40
   4   9   9   60.69    1.79
   4   9   9   52.53    3.10
   4   9   9   64.67    1.84
   4   9   9   56.20    1.57
   4   9  10   95.22    2.14
   4   9  10  101.55    4.29
   4   9  10  103.71    2.37
   4   9  11   43.71    1.71
   4   9  11   47.32    1.57
   4   9  11   42.18    1.31
   4   9  12  243.56    4.39
   4   9  12  242.57    3.91
   4   9  13   39.63    1.51
   4   9  13   41.91    1.20
   4   9  14  113.63    2.53
   4   9  14  112.36    2.62
   4   9  14  133.94    2.65
   4   9  14  128.01    2.28
   4   9  14  104.29    2.27
   4   9  15    8.61    0.95
   4   9  15    8.71    0.85
   4   9  16   46.28    1.39
   4   9  16   41.50    1.20
   4   9  17    0.58    0.51
   4   9  17    0.52    0.46
   4   9  17    0.37    0.33
   4  10  -9  121.79    2.32
   4  10  -8   74.61    1.79
   4  10  -7   38.42    1.13
   4  10  -7   36.25    1.38
   4  10  -6  133.86    2.65
   4  10  -6  138.88    2.81
   4  10  -6  135.02    2.88
   4  10  -5   15.10    0.88
   4  10  -5   15.33    1.01
   4  10  -5   14.91    1.01
   4  10  -4   23.04    1.07
   4  10  -4   24.56    1.19
   4  10  -3    5.08    1.78
   4  10  -3    6.63    1.57
   4  10  -3    6.62    0.86
   4  10  -2   40.57    2.90
   4  10  -2   45.12    1.49
   4  10  -1   10.89    1.15
   4  10  -1   11.89    2.05
   4  10  -1    9.15    0.88
   4  10   0  318.02    5.48
   4  10   0  319.15    8.58
   4  10   0  311.27    5.20
   4  10   1    9.50    0.84
   4  10   1    8.95    1.54
   4  10   1    6.99    1.25
   4  10   1    6.97    2.15
   4  10   2   46.23    1.46
   4  10   2   52.08    2.15
   4  10   2   48.22    1.47
   4  10   2   48.45    1.51
   4  10   2   53.33    1.99
   4  10   3    0.21    0.66
   4  10   3    0.16    0.59
   4  10   3   -0.68    1.89
   4  10   3    0.30    0.63
   4  10   3   -0.45    0.70
   4  10   3    0.88    1.37
   4  10   4  139.22    2.84
   4  10   4  141.16    2.84
   4  10   4  144.67    2.77
   4  10   4  167.14    4.05
   4  10   4  141.32    2.83
   4  10   4  155.04    3.11
   4  10   4  156.24    3.18
   4  10   5    3.47    0.65
   4  10   5    3.22    0.67
   4  10   5    3.34    0.60
   4  10   5    3.64    1.25
   4  10   5    3.61    1.97
   4  10   5    3.13    0.68
   4  10   5    3.09    0.78
   4  10   5    2.87    1.35
   4  10   6  160.63    3.14
   4  10   6  175.85    3.14
   4  10   6  186.74    3.70
   4  10   6  182.04    6.29
   4  10   6  188.94    3.55
   4  10   6  196.10    3.60
   4  10   6  150.68    3.33
   4  10   6  196.07    3.68
   4  10   7   33.07    1.49
   4  10   7   40.09    1.76
   4  10   7   38.74    1.20
   4  10   7   38.28    1.58
   4  10   7   36.11    2.90
   4  10   7   37.04    1.41
   4  10   7   40.40    1.58
   4  10   7   39.38    1.55
   4  10   8  140.48    2.87
   4  10   8  155.37    5.35
   4  10   8  143.56    5.29
   4  10   8  158.48    3.12
   4  10   8  140.05    2.75
   4  10   9    5.56    0.72
   4  10   9    6.63    0.93
   4  10   9    6.71    0.96
   4  10   9    6.66    1.63
   4  10   9    6.12    0.96
   4  10   9    6.18    1.59
   4  10  10   90.01    2.04
   4  10  10  101.95    2.34
   4  10  10   96.76    4.21
   4  10  11  164.47    2.95
   4  10  11  171.13    3.52
   4  10  11  171.86    3.29
   4  10  11  162.52    5.44
   4  10  12   41.07    1.61
   4  10  12   41.41    1.16
   4  10  13   61.31    1.76
   4  10  13   50.36    1.28
   4  10  14    7.48    0.83
   4  10  14    7.72    0.77
   4  10  14    6.80    0.60
   4  10  15   44.23    1.23
   4  10  15   31.13    1.20
   4  10  16    1.30    0.48
   4  10  16    1.00    0.60
   4  10  17   34.59    0.93
   4  10  17   42.39    0.95
   4  11  -9   24.19    0.83
   4  11  -8   28.42    1.01
   4  11  -7   47.62    1.40
   4  11  -6   20.04    0.85
   4  11  -5    4.15    0.60
   4  11  -5    3.93    0.77
   4  11  -4    9.17    0.76
   4  11  -4    8.57    0.87
   4  11  -3   47.60    1.52
   4  11  -3   49.75    1.58
   4  11  -2  177.37    3.45
   4  11  -2  169.85    3.33
   4  11  -1  318.18    8.74
   4  11  -1  345.88    5.65
   4  11   0   81.21    2.49
   4  11   0   76.73    4.16
   4  11   0   73.11    1.96
   4  11   1  117.49    5.37
   4  11   1  113.61    2.57
   4  11   1  125.58    2.97
   4  11   1  113.21    2.52
   4  11   2    0.39    0.75
   4  11   2    0.89    1.49
   4  11   2    0.46    0.70
   4  11   3   86.39    2.13
   4  11   3   92.31    2.51
   4  11   3   86.51    2.11
   4  11   4    1.76    0.73
   4  11   4    1.66    1.42
   4  11   4    1.59    0.72
   4  11   5  120.67    2.59
   4  11   5  112.64    2.69
   4  11   6    2.25    0.71
   4  11   6    2.02    0.79
   4  11   6    2.65    1.75
   4  11   6    1.87    1.39
   4  11   6    3.13    0.99
   4  11   7   97.73    2.04
   4  11   7   92.27    2.24
   4  11   7   96.13    2.43
   4  11   7  108.46    2.59
   4  11   7  104.08    2.48
   4  11   7  101.30    4.63
   4  11   8    5.00    0.72
   4  11   8    5.48    0.96
   4  11   8    5.89    1.00
   4  11   8    5.94    1.65
   4  11   8    6.22    0.89
   4  11   9   91.00    2.25
   4  11   9   92.07    4.14
   4  11   9   96.26    2.36
   4  11   9   96.53    2.47
   4  11  10   20.80    1.14
   4  11  10   23.36    2.22
   4  11  10   23.84    1.27
   4  11  11   92.60    2.33
   4  11  11   77.57    2.21
   4  11  12   64.50    1.89
   4  11  13   74.45    1.89
   4  11  13   57.68    1.73
   4  11  14   11.37    0.78
   4  11  14    8.86    0.81
   4  11  15    5.85    0.56
   4  11  15    3.57    0.63
   4  11  16   45.06    1.20
   4  11  16   38.65    0.98
   4  12  -9   17.21    0.85
   4  12  -8   15.98    0.72
   4  12  -7   20.70    0.89
   4  12  -6   20.25    0.96
   4  12  -6   18.62    0.75
   4  12  -5   53.82    1.42
   4  12  -4   25.76    1.15
   4  12  -4   24.23    1.03
   4  12  -3    1.78    0.72
   4  12  -3    1.33    0.59
   4  12  -2   21.21    1.21
   4  12  -2   22.41    1.14
   4  12  -1   38.95    1.59
   4  12  -1   45.04    1.99
   4  12  -1   43.05    1.49
   4  12   0   39.55    1.45
   4  12   0   38.56    1.49
   4  12   0   42.25    1.71
   4  12   0   42.67    2.00
   4  12   1   60.47    1.78
   4  12   1   60.29    1.83
   4  12   1   61.69    2.12
   4  12   1   56.12    3.81
   4  12   2   52.77    1.66
   4  12   2   52.28    1.69
   4  12   2   53.94    2.10
   4  12   2   54.25    4.05
   4  12   2   56.61    2.14
   4  12   3    6.31    0.85
   4  12   3    5.87    0.88
   4  12   3    8.13    1.54
   4  12   3    7.00    1.54
   4  12   4  155.76    3.16
   4  12   4  152.82    3.15
   4  12   5    2.64    0.77
   4  12   5    2.35    0.80
   4  12   5    3.27    1.44
   4  12   5    3.51    1.21
   4  12   5    1.82    1.85
   4  12   5    2.01    0.72
   4  12   6  151.88    3.21
   4  12   6  154.66    3.19
   4  12   6  147.94    3.30
   4  12   6  144.36    5.72
   4  12   7    9.94    1.10
   4  12   7   10.90    1.08
   4  12   7   12.04    1.01
   4  12   7   10.47    1.17
   4  12   7   11.52    2.06
   4  12   8  119.01    2.73
   4  12   8  116.19    2.68
   4  12   9    0.62    0.77
   4  12   9    0.54    0.74
   4  12   9    0.54    0.86
   4  12  10   97.55    2.26
   4  12  10  117.45    2.63
   4  12  11   43.36    1.54
   4  12  12   39.29    1.46
   4  12  12   49.80    1.54
   4  12  13   30.82    1.21
   4  12  13   39.90    1.28
   4  12  14   87.34    1.86
   4  12  14   77.08    1.94
   4  12  15   11.60    0.77
   4  12  15   10.09    0.66
   4  12  16    8.07    0.58
   4  12  16    6.34    0.48
   4  13  -8    9.62    0.55
   4  13  -8   10.98    0.78
   4  13  -7    3.62    0.93
   4  13  -7    3.03    0.51
   4  13  -6   32.29    1.38
   4  13  -6   28.07    1.00
   4  13  -5    1.76    0.62
   4  13  -5    2.55    1.18
   4  13  -5    1.52    0.43
   4  13  -4   50.24    1.47
   4  13  -4   49.13    1.36
   4  13  -4   52.40    1.83
   4  13  -3   16.36    0.88
   4  13  -2   18.22    1.04
   4  13  -2   17.58    1.09
   4  13  -2   16.26    1.08
   4  13  -2   19.81    1.54
   4  13  -1    9.63    0.91
   4  13  -1    9.20    0.94
   4  13  -1    9.56    1.05
   4  13  -1   11.14    1.49
   4  13   0   72.43    1.95
   4  13   0   74.64    2.00
   4  13   0   71.12    2.12
   4  13   0   78.32    2.32
   4  13   1    5.44    0.84
   4  13   1    6.00    0.86
   4  13   1    5.04    1.13
   4  13   1    3.85    1.78
   4  13   1    6.47    1.47
   4  13   2    5.29    0.85
   4  13   2    6.14    0.88
   4  13   2    8.77    1.28
   4  13   2    8.89    2.12
   4  13   2    7.97    1.52
   4  13   3  187.18    3.64
   4  13   3  186.29    3.64
   4  13   3  184.56    6.90
   4  13   3  197.68    3.85
   4  13   4   12.69    0.98
   4  13   4   12.85    0.98
   4  13   4   14.81    1.44
   4  13   4   14.93    2.46
   4  13   4   13.34    1.50
   4  13   5   87.41    2.21
   4  13   5   98.20    2.63
   4  13   5   89.88    4.66
   4  13   5   95.68    2.51
   4  13   6    9.41    1.40
   4  13   6    8.04    1.17
   4  13   6    8.19    1.95
   4  13   6    7.89    1.01
   4  13   6    9.60    0.89
   4  13   6    8.94    0.89
   4  13   7  139.84    3.01
   4  13   7  113.96    5.00
   4  13   7  139.41    2.92
   4  13   7  117.43    2.69
   4  13   8    1.83    0.96
   4  13   8    1.63    0.73
   4  13   8    2.20    0.76
   4  13   9  102.35    2.43
   4  13   9  100.54    2.39
   4  13  10   10.35    0.81
   4  13  10   13.64    0.96
   4  13  11   36.95    1.43
   4  13  11   48.09    1.48
   4  13  12    3.94    0.76
   4  13  12    5.20    0.68
   4  13  13   64.06    1.54
   4  13  13   53.28    1.38
   4  13  14    2.38    0.59
   4  13  15    7.07    0.56
   4  14  -7   37.73    0.92
   4  14  -7   43.61    1.08
   4  14  -6    1.43    0.50
   4  14  -6    0.91    0.84
   4  14  -5   58.18    1.46
   4  14  -5   60.20    1.43
   4  14  -4   19.72    0.95
   4  14  -4   21.96    1.32
   4  14  -4   19.79    0.91
   4  14  -3   65.25    1.73
   4  14  -3   66.08    1.68
   4  14  -3   70.43    1.64
   4  14  -2   76.58    1.87
   4  14  -2   76.89    1.82
   4  14  -2   82.57    2.16
   4  14  -1   39.83    1.46
   4  14   0   67.53    1.98
   4  14   0   71.32    1.89
   4  14   1   67.01    1.86
   4  14   1   67.11    1.87
   4  14   1   73.71    2.11
   4  14   1   71.73    2.14
   4  14   2    1.95    0.75
   4  14   2    2.00    0.77
   4  14   2    1.85    1.08
   4  14   2    1.89    1.30
   4  14   3    5.16    0.82
   4  14   3    5.60    0.83
   4  14   3    5.77    1.33
   4  14   3    5.56    1.17
   4  14   4  123.89    2.78
   4  14   4  115.95    2.59
   4  14   4  125.87    2.96
   4  14   5   21.85    1.47
   4  14   5   23.20    1.43
   4  14   5   19.12    1.07
   4  14   6   81.90    2.25
   4  14   7    3.75    0.70
   4  14   7    4.01    0.97
   4  14   8   13.28    1.08
   4  14   8   10.39    0.82
   4  14   8   12.71    0.90
   4  14   9    0.15    0.59
   4  14   9    0.01    0.60
   4  14  10   61.39    1.84
   4  14  10   84.98    1.90
   4  14  11    8.30    0.84
   4  14  11   10.81    0.75
   4  14  12   32.76    1.13
   4  14  12   45.80    1.21
   4  14  13   17.42    0.71
   4  14  13   13.19    0.57
   4  14  14    9.87    0.55
   4  15  -6    1.97    0.33
   4  15  -6    2.28    0.54
   4  15  -5    4.18    0.49
   4  15  -5    3.89    0.77
   4  15  -4   41.61    1.15
   4  15  -4   47.93    1.38
   4  15  -3   30.03    1.04
   4  15  -3   31.95    1.31
   4  15  -3   29.17    1.00
   4  15  -2   63.27    1.61
   4  15  -2   62.53    1.59
   4  15  -2   67.82    1.54
   4  15  -1   49.13    1.42
   4  15  -1   46.39    1.37
   4  15  -1   46.79    1.32
   4  15  -1   49.33    1.66
   4  15   0   43.81    1.39
   4  15   0   43.61    1.40
   4  15   0   51.07    1.57
   4  15   0   49.08    1.69
   4  15   1   93.66    2.15
   4  15   1   96.10    2.18
   4  15   1  101.02    2.35
   4  15   1   98.55    2.35
   4  15   2   30.87    1.23
   4  15   2   30.01    1.22
   4  15   3  115.44    2.52
   4  15   3  123.32    2.66
   4  15   4    7.66    0.81
   4  15   4    7.85    0.83
   4  15   4    9.62    1.24
   4  15   4    9.90    1.17
   4  15   5   66.32    1.86
   4  15   5   75.17    2.02
   4  15   6   -0.06    0.60
   4  15   6    0.82    0.90
   4  15   7   23.68    0.97
   4  15   7   35.94    1.39
   4  15   8    1.21    0.53
   4  15   8    1.63    0.82
   4  15  10    1.79    0.68
   4  15  10    2.38    0.51
   4  15  11   16.28    0.84
   4  15  11   23.98    0.84
   4  15  12    0.75    0.43
   4  15  13   14.76    0.65
   4  16  -4   47.20    1.05
   4  16  -4   41.18    0.94
   4  16  -3    8.45    0.80
   4  16  -3    6.85    0.53
   4  16  -2   30.24    1.12
   4  16  -2   30.37    0.95
   4  16  -1   11.86    0.73
   4  16  -1   12.34    0.64
   4  16  -1   12.47    1.03
   4  16   0  117.91    2.29
   4  16   0  123.13    2.38
   4  16   0  118.47    2.27
   4  16   0  117.29    2.31
   4  16   1    2.99    1.02
   4  16   1    2.64    0.77
   4  16   2   28.98    1.30
   4  16   2   32.00    1.27
   4  16   3    2.94    0.84
   4  16   3    2.62    0.98
   4  16   3    1.99    0.57
   4  16   4   69.76    1.75
   4  16   4   44.08    1.23
   4  16   5   47.62    1.53
   4  16   6   88.19    2.07
   4  16   7    7.48    0.83
   4  16   9   -0.04    0.59
   4  16  10   12.83    0.68
   4  16  11    4.78    0.41
   4  17  -1   25.42    0.84
   4  17   0    2.55    0.69
   4  17   1   11.32    0.81
   4  17   3   10.03    0.79
   4  17   4   23.19    1.00
   4  17   5   68.64    1.63
   4  17   6   11.98    0.80
   4  17   8    8.37    0.59
   4  17   9   39.41    0.91
   5 -15  -1   25.74    0.63
   5 -15   0   39.31    0.85
   5 -15   1   10.97    0.44
   5 -15   2   69.77    1.24
   5 -14  -5   23.46    0.68
   5 -14  -4   18.31    0.68
   5 -14  -4   16.87    0.51
   5 -14  -3   34.76    0.96
   5 -14  -3   35.99    0.90
   5 -14  -2    5.61    0.53
   5 -14  -2    6.72    0.55
   5 -14  -1   33.78    0.93
   5 -14  -1   37.16    1.03
   5 -14   0   30.96    0.96
   5 -14   0   33.05    1.01
   5 -14   1   71.19    1.57
   5 -14   1   71.72    1.58
   5 -14   2    6.82    0.60
   5 -14   2    6.02    0.57
   5 -14   3   54.70    1.30
   5 -14   3   51.85    1.19
   5 -14   4   10.37    0.58
   5 -14   5   26.32    0.76
   5 -13  -7    3.88    0.36
   5 -13  -7   12.76    0.51
   5 -13  -6    0.36    0.47
   5 -13  -5   12.46    0.75
   5 -13  -5   10.59    0.50
   5 -13  -4   41.59    1.09
   5 -13  -4   42.33    1.25
   5 -13  -4   40.77    1.15
   5 -13  -3   37.15    1.13
   5 -13  -3   35.60    1.11
   5 -13  -3   36.64    1.21
   5 -13  -2   49.50    1.31
   5 -13  -2   54.75    1.45
   5 -13  -2   51.94    1.37
   5 -13  -2   53.39    1.45
   5 -13  -1    4.74    0.65
   5 -13  -1    5.13    0.56
   5 -13  -1    4.77    0.72
   5 -13  -1    4.36    0.59
   5 -13  -1    4.53    0.72
   5 -13   0   57.31    1.62
   5 -13   0   57.59    1.50
   5 -13   0   58.73    1.58
   5 -13   0   61.99    1.55
   5 -13   1    0.98    0.67
   5 -13   1    0.75    0.53
   5 -13   1    1.23    0.66
   5 -13   2   22.61    0.95
   5 -13   2   23.31    1.06
   5 -13   3   16.36    0.94
   5 -13   3   16.54    0.86
   5 -13   3   16.79    0.90
   5 -13   3   15.93    0.81
   5 -13   3   15.26    0.85
   5 -13   4   24.03    1.00
   5 -13   4   24.35    0.97
   5 -13   4   24.16    0.93
   5 -13   4   21.60    0.70
   5 -13   4   23.72    1.02
   5 -13   5    2.70    0.58
   5 -13   5    3.71    0.56
   5 -13   5    2.12    0.34
   5 -13   5    2.74    0.49
   5 -13   5    2.82    0.57
   5 -13   6   40.37    1.15
   5 -13   6   40.43    1.07
   5 -13   6   41.65    1.12
   5 -13   6   38.35    1.06
   5 -13   7    2.41    0.44
   5 -13   7    2.07    0.38
   5 -13   7    1.99    0.42
   5 -13   8   32.30    0.76
   5 -13   8   34.20    0.83
   5 -12  -8    3.47    0.40
   5 -12  -7    0.75    0.53
   5 -12  -6   28.64    1.08
   5 -12  -6   26.38    0.94
   5 -12  -5   11.68    0.66
   5 -12  -5   12.44    0.94
   5 -12  -5   11.20    0.73
   5 -12  -4   71.35    1.69
   5 -12  -4   68.49    1.72
   5 -12  -4   72.59    1.90
   5 -12  -3   10.18    0.74
   5 -12  -3   10.18    0.67
   5 -12  -3   12.14    0.87
   5 -12  -3   10.58    0.78
   5 -12  -3   11.92    1.02
   5 -12  -2   41.35    1.37
   5 -12  -2   40.29    1.30
   5 -12  -2   43.79    1.49
   5 -12  -2   41.40    1.36
   5 -12  -2   43.32    1.51
   5 -12  -1   20.19    1.14
   5 -12  -1   20.18    1.14
   5 -12  -1   19.61    1.01
   5 -12  -1   20.41    1.07
   5 -12   0   38.99    1.49
   5 -12   0   39.62    1.42
   5 -12   0   39.84    1.37
   5 -12   0   41.10    1.48
   5 -12   1   27.33    1.28
   5 -12   1   26.82    1.23
   5 -12   1   27.20    1.16
   5 -12   1   26.10    1.14
   5 -12   1   26.87    1.28
   5 -12   1   26.81    1.15
   5 -12   1   26.91    1.18
   5 -12   2    3.78    0.68
   5 -12   2    3.87    0.83
   5 -12   2    3.60    0.75
   5 -12   2    4.37    0.72
   5 -12   2    3.64    0.68
   5 -12   2    3.36    0.51
   5 -12   2    3.30    0.71
   5 -12   3   94.92    2.30
   5 -12   3   97.80    2.30
   5 -12   3  100.45    2.40
   5 -12   3  102.16    2.38
   5 -12   3  102.41    2.45
   5 -12   3  100.14    2.08
   5 -12   4    5.81    0.76
   5 -12   4    6.69    0.87
   5 -12   4    6.79    0.60
   5 -12   4    7.13    0.84
   5 -12   4    7.27    0.77
   5 -12   4    7.27    0.80
   5 -12   5   17.34    1.01
   5 -12   5   17.38    0.81
   5 -12   5   18.37    1.04
   5 -12   5   17.84    1.00
   5 -12   5   18.19    0.96
   5 -12   6   15.32    0.88
   5 -12   6   15.61    0.75
   5 -12   6   16.24    0.94
   5 -12   6   15.97    0.92
   5 -12   6   16.38    0.89
   5 -12   7   59.53    1.39
   5 -12   7   56.77    1.53
   5 -12   7   59.10    1.55
   5 -12   7   61.87    1.52
   5 -12   8    0.52    0.45
   5 -12   8    0.34    0.37
   5 -12   8    0.19    0.47
   5 -12   8   -0.04    0.47
   5 -12   9   40.31    0.94
   5 -12   9   38.94    0.99
   5 -12  10    0.61    0.23
   5 -11  -8    5.13    0.59
   5 -11  -7   41.11    1.24
   5 -11  -7   40.84    1.30
   5 -11  -6   21.21    0.99
   5 -11  -6   20.60    0.80
   5 -11  -5   43.12    1.41
   5 -11  -5   45.87    1.62
   5 -11  -5   44.35    1.32
   5 -11  -4    1.40    0.50
   5 -11  -4    1.39    0.69
   5 -11  -4    0.86    0.62
   5 -11  -4    1.24    0.94
   5 -11  -3   52.62    1.58
   5 -11  -3   47.81    1.49
   5 -11  -3   51.10    1.59
   5 -11  -2    1.73    0.68
   5 -11  -1   26.35    1.22
   5 -11  -1   27.61    1.38
   5 -11   0   21.50    1.13
   5 -11   0   20.00    0.95
   5 -11   0   22.59    1.28
   5 -11   1   38.22    1.48
   5 -11   1   38.29    1.54
   5 -11   1   38.34    1.50
   5 -11   1   39.95    1.45
   5 -11   1   35.95    1.26
   5 -11   1   40.59    1.65
   5 -11   2   17.00    1.15
   5 -11   2   16.02    1.06
   5 -11   2   16.15    1.09
   5 -11   2   16.63    1.23
   5 -11   2   17.03    1.03
   5 -11   2   15.66    0.89
   5 -11   3   25.61    1.17
   5 -11   3   22.50    1.04
   5 -11   3   22.86    1.12
   5 -11   4   49.53    1.68
   5 -11   4   49.06    1.51
   5 -11   5   14.65    0.97
   5 -11   5   15.58    1.04
   5 -11   5   16.65    1.05
   5 -11   5   16.50    0.92
   5 -11   5   14.75    1.12
   5 -11   6   83.86    2.22
   5 -11   6   86.15    2.14
   5 -11   6   84.46    2.19
   5 -11   6   82.58    2.06
   5 -11   6   88.58    2.14
   5 -11   6   89.15    2.04
   5 -11   7    1.72    0.70
   5 -11   7    1.67    0.69
   5 -11   7    1.74    0.64
   5 -11   7    1.38    0.64
   5 -11   7    0.98    0.64
   5 -11   7    1.42    0.54
   5 -11   7    1.85    0.68
   5 -11   8   92.60    2.02
   5 -11   8   91.32    1.97
   5 -11   8   83.95    2.04
   5 -11   8   88.31    2.07
   5 -11   8   89.26    2.04
   5 -11   9    3.38    0.56
   5 -11   9    2.78    0.49
   5 -11   9    2.83    0.55
   5 -11   9    3.91    0.58
   5 -11   9    3.24    0.58
   5 -11  10   55.50    1.30
   5 -11  10   66.03    1.41
   5 -11  10   58.03    1.35
   5 -11  10   64.71    1.35
   5 -11  11    3.56    0.36
   5 -11  11    3.11    0.32
   5 -10  -9    1.25    0.45
   5 -10  -8   42.18    1.28
   5 -10  -7    0.61    0.77
   5 -10  -6   58.32    1.83
   5 -10  -6   54.48    1.43
   5 -10  -5    2.38    0.54
   5 -10  -5    2.91    1.03
   5 -10  -5    1.84    0.66
   5 -10  -4  152.81    3.16
   5 -10  -3   21.95    1.17
   5 -10  -3   19.28    1.08
   5 -10  -3   20.14    1.27
   5 -10  -3   22.07    1.19
   5 -10  -3   21.81    1.48
   5 -10  -2   16.76    1.22
   5 -10  -2   15.12    1.05
   5 -10  -2   15.31    1.36
   5 -10  -2   18.26    1.16
   5 -10  -1   38.02    1.53
   5 -10  -1   38.41    1.50
   5 -10  -1   36.14    1.29
   5 -10  -1   40.88    1.76
   5 -10  -1   41.74    1.67
   5 -10   0   20.75    1.27
   5 -10   0   20.04    1.23
   5 -10   0   20.53    1.22
   5 -10   0   20.59    1.15
   5 -10   0   20.57    1.03
   5 -10   0   20.65    1.38
   5 -10   0   20.43    1.35
   5 -10   1   56.15    1.97
   5 -10   1   55.02    1.88
   5 -10   1   54.82    1.89
   5 -10   1   57.17    1.69
   5 -10   1   58.27    1.96
   5 -10   1   56.62    1.79
   5 -10   1   56.99    2.08
   5 -10   2   17.99    1.10
   5 -10   2   18.91    1.29
   5 -10   2   20.40    1.22
   5 -10   2   19.32    1.27
   5 -10   2   18.73    1.26
   5 -10   2   17.38    1.02
   5 -10   2   18.48    1.25
   5 -10   2   20.34    1.45
   5 -10   3  130.59    2.82
   5 -10   3  119.00    3.01
   5 -10   3  119.23    2.97
   5 -10   3  117.78    2.90
   5 -10   3  119.21    2.90
   5 -10   3  121.88    2.88
   5 -10   3  120.38    2.72
   5 -10   3  123.84    2.75
   5 -10   3  123.19    3.24
   5 -10   4   12.72    0.97
   5 -10   4   13.63    1.36
   5 -10   4   12.18    1.11
   5 -10   4   12.02    0.93
   5 -10   4   12.63    1.08
   5 -10   4   13.16    1.06
   5 -10   4   11.93    1.15
   5 -10   4   12.21    1.14
   5 -10   5   72.80    2.35
   5 -10   5   73.22    2.12
   5 -10   5   72.16    2.26
   5 -10   5   76.26    2.26
   5 -10   5   75.97    2.17
   5 -10   6    6.24    0.86
   5 -10   6    6.29    0.92
   5 -10   7   44.12    1.58
   5 -10   7   44.05    1.38
   5 -10   7   47.87    1.56
   5 -10   8    0.15    0.63
   5 -10   8    0.73    0.57
   5 -10   8    0.51    0.69
   5 -10   8   -0.29    0.68
   5 -10   8    0.59    0.66
   5 -10   8    0.29    0.68
   5 -10   9  155.43    2.94
   5 -10   9  157.75    3.18
   5 -10   9  165.41    3.24
   5 -10   9  174.73    3.24
   5 -10   9  175.24    3.18
   5 -10   9  174.81    3.08
   5 -10  10    9.04    0.69
   5 -10  10    8.14    0.64
   5 -10  10    9.22    0.73
   5 -10  10    8.58    0.70
   5 -10  11   39.67    1.12
   5 -10  12    3.07    0.37
   5 -10  12    3.53    0.37
   5  -9  -9   70.88    1.54
   5  -9  -8    0.06    0.70
   5  -9  -7   69.56    2.00
   5  -9  -7   75.13    1.99
   5  -9  -6    2.11    0.61
   5  -9  -6    2.59    0.99
   5  -9  -6    2.13    0.92
   5  -9  -5   24.69    1.39
   5  -9  -5   22.58    1.15
   5  -9  -4    3.76    0.86
   5  -9  -4    2.82    0.68
   5  -9  -4    3.45    0.72
   5  -9  -4    3.59    1.31
   5  -9  -3   31.67    1.51
   5  -9  -3   31.65    1.36
   5  -9  -3   30.57    1.81
   5  -9  -3   30.55    1.38
   5  -9  -2    2.50    0.98
   5  -9  -2    3.09    0.78
   5  -9  -2    2.20    0.59
   5  -9  -2    1.93    1.23
   5  -9  -2    2.78    0.89
   5  -9  -1  193.28    3.98
   5  -9  -1  199.97    3.93
   5  -9  -1  196.08    3.75
   5  -9  -1  199.61    4.21
   5  -9  -1  201.71    4.16
   5  -9   0   40.44    1.68
   5  -9   0   39.35    1.72
   5  -9   0   41.99    1.70
   5  -9   0   39.96    1.57
   5  -9   0   37.81    1.44
   5  -9   0   39.08    1.86
   5  -9   0   41.99    1.84
   5  -9   1   66.92    2.22
   5  -9   1   64.78    2.09
   5  -9   1   66.20    2.18
   5  -9   1   64.46    1.91
   5  -9   1   65.40    2.20
   5  -9   1   64.35    1.95
   5  -9   1   65.60    2.32
   5  -9   2   37.46    1.48
   5  -9   2   37.27    1.91
   5  -9   2   37.20    1.74
   5  -9   2   38.50    1.70
   5  -9   2   36.76    1.62
   5  -9   2   35.95    1.66
   5  -9   2   38.99    1.67
   5  -9   2   35.30    1.45
   5  -9   2   38.54    1.65
   5  -9   3   13.67    1.00
   5  -9   3   13.88    1.26
   5  -9   3   13.79    1.14
   5  -9   3   14.51    1.22
   5  -9   3   14.90    1.59
   5  -9   3   13.26    0.89
   5  -9   3   13.40    1.22
   5  -9   3   14.22    1.18
   5  -9   3   13.93    1.02
   5  -9   3   14.65    1.19
   5  -9   4   30.63    1.33
   5  -9   4   34.13    2.17
   5  -9   4   31.29    1.62
   5  -9   4   30.82    1.60
   5  -9   4   30.84    1.50
   5  -9   4   28.35    1.39
   5  -9   4   28.48    1.48
   5  -9   4   29.63    1.49
   5  -9   4   31.42    1.40
   5  -9   4   30.45    1.36
   5  -9   5  152.93    3.92
   5  -9   5  154.27    3.58
   5  -9   5  154.98    3.63
   5  -9   5  158.82    3.48
   5  -9   5  161.11    3.32
   5  -9   5  150.20    3.43
   5  -9   5  158.25    3.45
   5  -9   5  154.06    3.06
   5  -9   6  138.01    3.43
   5  -9   6  139.92    2.88
   5  -9   6  152.83    3.56
   5  -9   6  151.91    3.49
   5  -9   6  158.68    3.40
   5  -9   6  159.80    3.21
   5  -9   6  129.08    3.00
   5  -9   6  145.48    3.32
   5  -9   6  150.83    3.32
   5  -9   7   86.84    2.16
   5  -9   7   85.66    2.32
   5  -9   7   76.52    1.96
   5  -9   7   81.58    2.45
   5  -9   7   84.83    2.44
   5  -9   7   84.55    2.31
   5  -9   9    2.94    0.70
   5  -9   9    3.78    0.78
   5  -9   9    3.23    0.70
   5  -9   9    3.08    0.78
   5  -9   9    2.91    0.75
   5  -9   9    2.90    0.77
   5  -9   9    3.31    0.76
   5  -9  10  141.09    2.67
   5  -9  10  140.56    2.85
   5  -9  10  133.79    2.59
   5  -9  10  140.13    2.79
   5  -9  10  136.08    2.74
   5  -9  11    2.77    0.60
   5  -9  11    4.21    0.59
   5  -9  11    3.57    0.64
   5  -9  12   50.46    1.21
   5  -9  12   52.04    1.31
   5  -9  12   51.35    1.20
   5  -9  13    0.49    0.32
   5  -9  13    0.84    0.31
   5  -8 -11    2.24    0.35
   5  -8  -8   86.94    2.12
   5  -8  -7    0.88    0.85
   5  -8  -7    0.35    0.90
   5  -8  -6   66.94    2.05
   5  -8  -6   61.90    1.69
   5  -8  -5    0.38    0.59
   5  -8  -5   -0.13    0.71
   5  -8  -5    0.13    0.99
   5  -8  -5    0.59    1.30
   5  -8  -4  254.73    4.81
   5  -8  -4  268.19    4.94
   5  -8  -4  258.95    4.77
   5  -8  -4  288.98    5.07
   5  -8  -4  299.93    6.01
   5  -8  -3   69.70    2.18
   5  -8  -3   66.74    2.04
   5  -8  -3   68.24    2.04
   5  -8  -3   70.13    2.72
   5  -8  -2  171.34    3.76
   5  -8  -2  178.73    3.71
   5  -8  -2  161.06    3.31
   5  -8  -2  163.34    3.96
   5  -8  -2  170.06    3.59
   5  -8  -1    3.55    0.89
   5  -8  -1    3.16    1.02
   5  -8  -1    3.16    0.81
   5  -8  -1    2.97    0.69
   5  -8  -1    4.04    1.37
   5  -8  -1    2.96    0.88
   5  -8   0  463.83    7.98
   5  -8   0  474.53    7.61
   5  -8   0  470.83    7.52
   5  -8   0  464.39    7.90
   5  -8   0  472.42    7.79
   5  -8   0  458.68    7.82
   5  -8   0  464.64    7.89
   5  -8   1  114.93    3.19
   5  -8   1  121.55    3.12
   5  -8   1  119.17    3.05
   5  -8   1  120.18    2.98
   5  -8   1  125.52    2.82
   5  -8   1  123.34    3.09
   5  -8   1  120.12    2.78
   5  -8   2   41.03    1.54
   5  -8   2   47.21    1.80
   5  -8   2   48.14    1.96
   5  -8   2   47.47    1.87
   5  -8   2   43.90    2.09
   5  -8   2   40.42    1.44
   5  -8   2   42.86    1.79
   5  -8   2   44.71    1.77
   5  -8   2   46.08    1.64
   5  -8   2   45.54    1.81
   5  -8   3    4.31    0.78
   5  -8   3    5.00    1.10
   5  -8   3    4.90    1.05
   5  -8   3    4.70    0.98
   5  -8   3    4.69    1.53
   5  -8   3    3.70    0.63
   5  -8   3    4.38    0.90
   5  -8   3    4.28    1.02
   5  -8   3    4.42    0.85
   5  -8   3    4.76    1.00
   5  -8   3    4.79    1.06
   5  -8   4  191.92    3.64
   5  -8   4  168.42    3.27
   5  -8   4  174.29    4.04
   5  -8   4  179.94    3.90
   5  -8   4  182.17    4.04
   5  -8   4  175.18    3.67
   5  -8   4  167.52    3.81
   5  -8   4  177.79    3.85
   5  -8   4  182.45    3.64
   5  -8   5   36.42    1.42
   5  -8   5   34.45    1.30
   5  -8   5   36.07    1.83
   5  -8   5   35.63    1.76
   5  -8   5   36.90    2.31
   5  -8   5   39.26    1.69
   5  -8   5   34.62    1.50
   5  -8   5   32.70    1.65
   5  -8   5   35.99    1.63
   5  -8   5   35.19    1.41
   5  -8   6  133.48    3.49
   5  -8   6  122.55    2.65
   5  -8   6  133.61    3.36
   5  -8   6  130.95    3.08
   5  -8   6  117.76    3.26
   5  -8   6  132.21    3.14
   5  -8   6  132.86    2.86
   5  -8   6  130.02    2.94
   5  -8   6  125.76    3.25
   5  -8   6  128.42    3.12
   5  -8   7   85.02    2.09
   5  -8   7   92.51    2.89
   5  -8   7   91.38    2.73
   5  -8   7   89.03    2.43
   5  -8   7   88.66    2.48
   5  -8   7   79.72    2.39
   5  -8   7   89.18    2.24
   5  -8   7   89.70    2.29
   5  -8   7   82.40    2.57
   5  -8   7   88.37    2.50
   5  -8   8    3.04    0.88
   5  -8   8    2.48    0.77
   5  -8   8    2.44    0.65
   5  -8   8    2.78    0.80
   5  -8   8    3.14    0.79
   5  -8   8    2.86    0.88
   5  -8   8    3.58    1.01
   5  -8   8    2.97    0.98
   5  -8   8    2.82    0.89
   5  -8   9  173.07    3.36
   5  -8   9  172.33    3.49
   5  -8   9  168.45    3.57
   5  -8   9  178.54    3.40
   5  -8  10   18.26    1.10
   5  -8  10   20.00    1.09
   5  -8  11   65.72    1.65
   5  -8  11   62.88    1.66
   5  -8  11   62.33    1.59
   5  -8  11   66.74    1.77
   5  -8  11   62.82    1.78
   5  -8  12    1.88    0.57
   5  -8  12    2.05    0.51
   5  -8  12    1.16    0.62
   5  -8  12    1.54    0.62
   5  -8  12    1.50    0.58
   5  -8  13  114.37    2.08
   5  -8  13  112.19    2.16
   5  -8  13  118.45    2.19
   5  -8  13  117.21    2.09
   5  -8  14    3.81    0.34
   5  -8  14    4.62    0.35
   5  -7 -12   19.84    0.59
   5  -7 -11    3.85    0.43
   5  -7  -8   16.20    1.06
   5  -7  -7   65.93    2.04
   5  -7  -6    8.22    0.79
   5  -7  -6    9.07    1.21
   5  -7  -6    8.41    1.30
   5  -7  -6    9.20    0.82
   5  -7  -5   36.55    1.42
   5  -7  -5   39.13    1.48
   5  -7  -5   40.33    1.75
   5  -7  -5   38.22    2.27
   5  -7  -4   11.86    0.99
   5  -7  -4   12.93    1.10
   5  -7  -4   14.06    1.03
   5  -7  -4   14.62    1.30
   5  -7  -4   16.25    2.71
   5  -7  -3  312.46    5.54
   5  -7  -3  304.73    5.59
   5  -7  -3  313.71    5.52
   5  -7  -3  309.55    5.55
   5  -7  -3  305.08    6.60
   5  -7  -2   38.50    1.67
   5  -7  -2   36.57    1.58
   5  -7  -2   34.98    2.06
   5  -7  -2   36.70    1.39
   5  -7  -2   37.81    1.72
   5  -7  -1  575.98    9.21
   5  -7  -1  561.83    9.08
   5  -7  -1  573.47    9.06
   5  -7  -1  580.15    8.83
   5  -7  -1  539.49    9.27
   5  -7  -1  550.87    9.18
   5  -7   0  137.20    3.38
   5  -7   0  142.76    3.36
   5  -7   0  143.90    3.25
   5  -7   0  138.04    3.27
   5  -7   0  140.06    3.04
   5  -7   0  139.26    3.38
   5  -7   1  203.76    4.40
   5  -7   1  193.79    3.69
   5  -7   1  197.50    3.77
   5  -7   1  210.30    4.34
   5  -7   1  210.81    4.28
   5  -7   1  209.52    4.19
   5  -7   1  209.95    4.22
   5  -7   1  209.29    4.01
   5  -7   2  107.13    2.89
   5  -7   2  106.26    2.74
   5  -7   2  106.07    2.83
   5  -7   2  101.73    3.02
   5  -7   2   98.57    2.32
   5  -7   2  101.99    2.45
   5  -7   2   99.40    2.48
   5  -7   2  100.59    2.70
   5  -7   2  104.60    2.72
   5  -7   2  104.72    2.59
   5  -7   2  108.81    2.75
   5  -7   3  121.33    2.97
   5  -7   3  113.77    3.07
   5  -7   3  118.28    3.07
   5  -7   3  120.14    3.51
   5  -7   3  119.62    2.61
   5  -7   3  116.80    2.74
   5  -7   3  109.98    2.89
   5  -7   3  121.00    2.88
   5  -7   3  117.69    2.93
   5  -7   4   23.54    1.10
   5  -7   4   24.27    1.53
   5  -7   4   25.11    1.41
   5  -7   4   25.67    1.53
   5  -7   4   28.16    2.19
   5  -7   4   24.83    1.17
   5  -7   4   22.33    0.91
   5  -7   4   24.52    1.29
   5  -7   4   21.85    1.43
   5  -7   4   24.36    1.43
   5  -7   4   26.21    1.40
   5  -7   5  119.79    2.59
   5  -7   5  125.10    3.37
   5  -7   5  128.13    3.30
   5  -7   5  128.05    3.06
   5  -7   5  142.31    3.85
   5  -7   5  132.23    3.17
   5  -7   5  123.06    2.50
   5  -7   5  130.39    2.88
   5  -7   5  129.42    2.92
   5  -7   5  130.75    2.76
   5  -7   5  115.45    3.10
   5  -7   5  124.83    3.10
   5  -7   5  131.04    2.84
   5  -7   6    4.49    0.81
   5  -7   6    4.96    1.02
   5  -7   6    4.22    1.32
   5  -7   6    3.35    1.11
   5  -7   6    5.52    1.01
   5  -7   6    4.72    1.15
   5  -7   6    4.77    0.79
   5  -7   6    4.76    0.87
   5  -7   6    5.02    0.92
   5  -7   6    5.09    0.79
   5  -7   6    5.07    1.32
   5  -7   6    5.44    1.05
   5  -7   6    5.23    0.84
   5  -7   7   81.49    2.03
   5  -7   7   84.56    2.40
   5  -7   7   88.57    2.91
   5  -7   7   85.19    2.47
   5  -7   7   79.17    2.38
   5  -7   7   83.51    2.26
   5  -7   7   86.81    3.06
   5  -7   7   79.92    2.29
   5  -7   7   81.44    2.06
   5  -7   7   83.59    2.53
   5  -7   8   72.40    2.18
   5  -7   8   70.87    1.86
   5  -7   8   70.38    2.70
   5  -7   8   75.25    2.71
   5  -7   8   72.52    2.25
   5  -7   8   63.74    2.01
   5  -7   8   72.14    2.07
   5  -7   8   73.59    2.06
   5  -7   8   62.95    2.26
   5  -7   8   72.28    2.14
   5  -7   8   71.93    1.84
   5  -7   8   77.61    2.45
   5  -7   9    1.98    0.76
   5  -7   9    2.46    0.94
   5  -7   9    3.09    1.02
   5  -7   9    1.97    0.85
   5  -7   9    2.16    0.86
   5  -7   9    3.04    0.73
   5  -7   9    3.34    0.85
   5  -7   9    1.70    0.58
   5  -7   9    1.75    0.81
   5  -7   9    2.49    0.97
   5  -7  10  225.18    4.06
   5  -7  10  220.92    4.32
   5  -7  10  218.52    4.18
   5  -7  10  209.40    3.83
   5  -7  10  226.97    4.20
   5  -7  11   83.52    2.10
   5  -7  11   81.14    2.10
   5  -7  12   19.12    1.02
   5  -7  12   19.52    1.00
   5  -7  12   21.70    0.97
   5  -7  12   20.82    1.06
   5  -7  12   19.49    0.96
   5  -7  12   20.60    1.05
   5  -7  13   43.48    1.22
   5  -7  13   43.44    1.28
   5  -7  13   41.82    1.20
   5  -7  13   44.00    1.29
   5  -7  13   39.05    1.24
   5  -7  14   81.39    1.57
   5  -7  14   81.96    1.68
   5  -7  14   81.89    1.58
   5  -7  14   81.32    1.64
   5  -6 -12    4.31    0.44
   5  -6 -11   26.22    0.81
   5  -6  -8   28.52    1.23
   5  -6  -7    0.55    1.05
   5  -6  -7    1.77    0.70
   5  -6  -7    0.87    0.92
   5  -6  -6   15.11    0.99
   5  -6  -6   18.98    1.54
   5  -6  -6   19.68    1.09
   5  -6  -6   15.99    1.41
   5  -6  -6   17.39    1.00
   5  -6  -5    5.18    0.80
   5  -6  -5    3.82    1.18
   5  -6  -5    4.83    0.75
   5  -6  -5    4.65    0.85
   5  -6  -5    5.11    1.49
   5  -6  -5    5.48    0.87
   5  -6  -4  100.69    2.49
   5  -6  -4  103.15    2.53
   5  -6  -4   98.42    2.34
   5  -6  -4  118.99    3.82
   5  -6  -4   83.05    2.28
   5  -6  -3   -0.19    0.92
   5  -6  -3    0.74    0.79
   5  -6  -3    0.26    0.75
   5  -6  -3    1.08    1.64
   5  -6  -3    0.28    0.74
   5  -6  -2  239.94    4.51
   5  -6  -2  245.41    4.62
   5  -6  -2  257.36    4.64
   5  -6  -2  239.06    4.50
   5  -6  -2  233.03    4.30
   5  -6  -2  230.83    4.93
   5  -6  -2  212.23    4.13
   5  -6  -1  112.38    2.83
   5  -6  -1  115.31    2.88
   5  -6  -1  110.73    2.75
   5  -6  -1  109.51    2.70
   5  -6  -1  110.01    2.55
   5  -6  -1  111.21    2.98
   5  -6   0  287.29    4.93
   5  -6   0  305.38    5.55
   5  -6   0  295.84    5.46
   5  -6   0  304.88    5.38
   5  -6   0  303.31    5.45
   5  -6   0  299.89    5.17
   5  -6   0  305.30    5.51
   5  -6   1  187.75    3.91
   5  -6   1  186.20    3.86
   5  -6   1  186.68    3.75
   5  -6   1  187.94    3.97
   5  -6   1  179.48    3.38
   5  -6   1  162.48    3.06
   5  -6   1  170.38    3.39
   5  -6   1  184.55    3.60
   5  -6   1  193.26    3.86
   5  -6   1  162.08    3.21
   5  -6   1  176.76    3.49
   5  -6   2  195.07    3.72
   5  -6   2  202.46    4.20
   5  -6   2  208.29    4.07
   5  -6   2  201.17    4.17
   5  -6   2  204.81    4.32
   5  -6   2  203.40    3.84
   5  -6   2  183.39    3.34
   5  -6   2  200.43    3.72
   5  -6   2  194.54    3.77
   5  -6   2  189.25    3.97
   5  -6   2  197.26    4.01
   5  -6   2  208.33    3.97
   5  -6   2  209.79    4.05
   5  -6   2  185.67    3.46
   5  -6   3   32.33    1.26
   5  -6   3   33.85    1.65
   5  -6   3   34.84    1.55
   5  -6   3   31.55    1.60
   5  -6   3   35.30    1.84
   5  -6   3   27.43    0.99
   5  -6   3   32.77    1.29
   5  -6   3   34.11    1.37
   5  -6   3   29.85    1.50
   5  -6   3   31.91    1.51
   5  -6   3   33.95    1.55
   5  -6   4   51.89    1.59
   5  -6   4   51.23    2.01
   5  -6   4   50.39    1.98
   5  -6   4   52.60    1.84
   5  -6   4   58.48    2.31
   5  -6   4   58.18    1.95
   5  -6   4   47.51    1.33
   5  -6   4   51.44    1.67
   5  -6   4   53.79    1.72
   5  -6   4   52.53    1.68
   5  -6   4   47.58    1.83
   5  -6   4   52.40    1.89
   5  -6   4   55.38    1.83
   5  -6   5   14.32    0.92
   5  -6   5   13.43    1.35
   5  -6   5   14.59    1.32
   5  -6   5   13.56    1.16
   5  -6   5   14.48    1.18
   5  -6   5   16.67    1.47
   5  -6   5   12.91    0.77
   5  -6   5   15.45    1.04
   5  -6   5   13.58    1.05
   5  -6   5   14.06    1.01
   5  -6   5   12.05    1.25
   5  -6   5   13.29    1.17
   5  -6   5   14.46    1.12
   5  -6   6  128.79    3.67
   5  -6   6  119.29    3.34
   5  -6   6  126.92    3.01
   5  -6   6  129.32    3.12
   5  -6   6  124.62    3.15
   5  -6   6  125.58    2.53
   5  -6   6  129.26    2.94
   5  -6   6  126.78    2.87
   5  -6   6  116.29    2.76
   5  -6   6  127.68    2.79
   5  -6   6  118.27    3.34
   5  -6   6  127.53    3.01
   5  -6   6  125.35    2.71
   5  -6   6  122.27    3.11
   5  -6   7  120.47    3.00
   5  -6   7  130.57    3.85
   5  -6   7  126.13    3.13
   5  -6   7  118.10    2.98
   5  -6   7  129.92    3.00
   5  -6   7  126.42    2.90
   5  -6   7  137.90    3.93
   5  -6   7  122.37    3.01
   5  -6   7  124.64    2.77
   5  -6   7  122.46    3.28
   5  -6   8   45.69    1.79
   5  -6   8   47.18    2.41
   5  -6   8   46.52    1.85
   5  -6   8   41.28    1.61
   5  -6   8   48.05    1.70
   5  -6   8   45.41    1.54
   5  -6   8   44.92    1.78
   5  -6   8   47.66    2.27
   5  -6   9  103.07    2.70
   5  -6   9   93.64    2.80
   5  -6   9   97.84    3.13
   5  -6   9  108.76    2.85
   5  -6   9  113.76    2.75
   5  -6   9  107.07    2.69
   5  -6   9  107.26    2.58
   5  -6   9  105.29    2.43
   5  -6   9  107.86    2.76
   5  -6   9  107.21    3.18
   5  -6  10    6.12    0.98
   5  -6  10    5.31    0.85
   5  -6  10    5.69    0.94
   5  -6  10    7.18    0.98
   5  -6  10    5.41    0.63
   5  -6  10    7.01    0.90
   5  -6  10    6.81    1.05
   5  -6  10    5.89    0.90
   5  -6  10    6.59    0.73
   5  -6  10    5.11    0.97
   5  -6  10    5.24    0.96
   5  -6  11    3.70    0.84
   5  -6  11    4.57    0.84
   5  -6  11    4.30    0.80
   5  -6  11    5.02    0.95
   5  -6  11    3.87    0.61
   5  -6  11    4.43    0.87
   5  -6  12   44.31    1.55
   5  -6  12   46.69    1.58
   5  -6  12   41.86    1.20
   5  -6  12   46.76    1.61
   5  -6  12   46.09    1.56
   5  -6  13   23.36    1.05
   5  -6  13   26.03    1.06
   5  -6  13   26.85    1.14
   5  -6  13   25.48    1.02
   5  -6  13   27.30    1.17
   5  -6  13   25.43    1.12
   5  -6  14    6.00    0.60
   5  -6  14    5.58    0.67
   5  -6  14    5.83    0.64
   5  -6  14    5.87    0.70
   5  -6  14    5.34    0.62
   5  -6  15   42.76    0.98
   5  -6  15   43.97    1.09
   5  -6  15   41.82    1.00
   5  -5 -12   30.54    0.84
   5  -5 -10   68.90    1.75
   5  -5  -9   73.12    1.92
   5  -5  -8   36.08    1.38
   5  -5  -8   27.25    1.27
   5  -5  -7  125.02    3.21
   5  -5  -7  113.62    2.76
   5  -5  -6   12.66    0.95
   5  -5  -6   14.59    1.76
   5  -5  -6   14.85    1.00
   5  -5  -6   12.92    1.26
   5  -5  -6   14.12    0.93
   5  -5  -5   52.62    1.70
   5  -5  -5   50.07    1.62
   5  -5  -5   51.58    1.64
   5  -5  -5   47.73    2.03
   5  -5  -4    0.72    0.80
   5  -5  -4    0.27    0.70
   5  -5  -4   -0.19    1.37
   5  -5  -3  134.67    3.00
   5  -5  -3  137.13    3.03
   5  -5  -3  133.96    2.96
   5  -5  -3  126.79    2.97
   5  -5  -3  133.35    2.77
   5  -5  -3  136.00    3.53
   5  -5  -2   44.88    1.68
   5  -5  -2   48.64    1.74
   5  -5  -2   49.25    1.78
   5  -5  -2   50.47    1.77
   5  -5  -2   49.51    1.50
   5  -5  -2   47.05    1.56
   5  -5  -2   52.47    2.11
   5  -5  -2   46.01    1.66
   5  -5  -1   32.71    1.43
   5  -5  -1   35.98    1.54
   5  -5  -1   29.23    1.09
   5  -5  -1   30.24    1.11
   5  -5  -1   34.86    1.54
   5  -5  -1   33.47    1.21
   5  -5  -1   33.40    1.33
   5  -5  -1   35.47    1.75
   5  -5  -1   32.81    1.37
   5  -5   0   96.64    2.56
   5  -5   0   85.28    2.00
   5  -5   0   93.12    2.17
   5  -5   0   92.10    2.14
   5  -5   0   95.08    2.54
   5  -5   0   93.84    2.41
   5  -5   0   93.53    2.47
   5  -5   0   94.90    2.53
   5  -5   0   94.67    2.30
   5  -5   0  100.01    2.62
   5  -5   0   96.10    2.26
   5  -5   1    3.99    0.94
   5  -5   1    4.95    0.82
   5  -5   1    5.02    0.89
   5  -5   1    4.34    1.03
   5  -5   1    3.59    0.63
   5  -5   1    4.83    0.58
   5  -5   1    3.72    0.63
   5  -5   1    4.05    0.70
   5  -5   1    4.38    0.77
   5  -5   1    4.78    1.11
   5  -5   1    4.37    0.77
   5  -5   1    4.19    0.71
   5  -5   2    1.68    0.58
   5  -5   2    1.40    0.85
   5  -5   2    1.35    0.81
   5  -5   2    0.85    0.76
   5  -5   2    1.64    0.99
   5  -5   2    1.45    0.59
   5  -5   2    2.16    0.61
   5  -5   2    1.37    0.48
   5  -5   2    1.49    0.64
   5  -5   2    1.39    0.83
   5  -5   2    1.68    0.79
   5  -5   2    1.34    0.72
   5  -5   2    1.55    1.01
   5  -5   2    1.41    0.70
   5  -5   3  226.23    4.03
   5  -5   3  231.40    4.59
   5  -5   3  233.97    4.44
   5  -5   3  228.36    4.54
   5  -5   3  241.76    4.67
   5  -5   3  221.85    3.84
   5  -5   3  232.06    4.20
   5  -5   3  222.59    4.11
   5  -5   3  229.23    4.16
   5  -5   3  217.55    4.28
   5  -5   3  224.33    4.36
   5  -5   3  237.64    4.35
   5  -5   3  221.69    3.91
   5  -5   3  223.51    3.93
   5  -5   4    8.59    0.75
   5  -5   4    7.64    1.07
   5  -5   4    7.79    0.76
   5  -5   4    8.07    1.07
   5  -5   4    7.81    0.95
   5  -5   4    8.66    1.15
   5  -5   4    8.07    0.97
   5  -5   4    8.50    0.65
   5  -5   4    9.61    0.88
   5  -5   4    7.96    0.84
   5  -5   4    8.09    0.88
   5  -5   4    7.87    1.01
   5  -5   4    7.69    0.99
   5  -5   4    8.77    1.07
   5  -5   4    8.31    0.85
   5  -5   5   87.34    2.07
   5  -5   5   81.46    2.56
   5  -5   5   84.45    2.53
   5  -5   5   85.75    2.34
   5  -5   5   88.74    2.44
   5  -5   5   90.62    2.55
   5  -5   5   84.38    1.89
   5  -5   5   88.23    2.29
   5  -5   5   84.96    2.18
   5  -5   5   81.91    2.21
   5  -5   5   86.56    2.19
   5  -5   5   78.95    2.32
   5  -5   5   81.21    2.37
   5  -5   5   87.89    2.23
   5  -5   5   83.78    2.01
   5  -5   6   24.36    1.33
   5  -5   6   24.86    1.63
   5  -5   6   22.64    1.52
   5  -5   6   25.57    1.38
   5  -5   6   23.86    1.38
   5  -5   6   27.35    1.04
   5  -5   6   28.02    1.36
   5  -5   6   25.56    1.26
   5  -5   6   23.05    1.17
   5  -5   6   24.19    1.45
   5  -5   6   23.82    1.35
   5  -5   6   25.19    1.24
   5  -5   6   23.03    1.42
   5  -5   6   25.01    1.30
   5  -5   6   25.80    1.25
   5  -5   6   27.06    1.16
   5  -5   7  176.82    3.77
   5  -5   7  195.03    4.56
   5  -5   7  186.27    4.51
   5  -5   7  182.32    3.92
   5  -5   7  169.93    3.68
   5  -5   7  186.97    3.36
   5  -5   7  184.24    3.83
   5  -5   7  177.43    3.71
   5  -5   7  181.61    3.65
   5  -5   7  180.67    3.59
   5  -5   7  177.90    3.86
   5  -5   7  169.78    4.07
   5  -5   7  169.69    3.38
   5  -5   7  183.85    3.30
   5  -5   8   63.08    2.08
   5  -5   8   71.20    2.55
   5  -5   8   65.48    2.20
   5  -5   8   60.56    1.89
   5  -5   8   65.54    2.13
   5  -5   8   65.00    2.09
   5  -5   8   65.20    2.00
   5  -5   8   64.47    1.92
   5  -5   8   65.35    2.18
   5  -5   8   67.19    1.83
   5  -5   8   71.60    2.87
   5  -5   9  272.03    5.30
   5  -5   9  276.03    5.21
   5  -5   9  284.21    5.74
   5  -5   9  291.96    5.50
   5  -5   9  278.92    5.15
   5  -5   9  283.37    5.11
   5  -5   9  273.83    4.94
   5  -5   9  286.68    5.41
   5  -5   9  297.80    6.26
   5  -5   9  272.36    4.65
   5  -5  10  125.08    2.99
   5  -5  10  112.71    2.94
   5  -5  10  129.69    3.23
   5  -5  10  118.78    2.50
   5  -5  10  132.79    3.16
   5  -5  10  127.84    2.89
   5  -5  10  125.22    2.95
   5  -5  10  121.14    2.72
   5  -5  10  127.23    3.15
   5  -5  10  111.15    3.03
   5  -5  11   74.84    2.31
   5  -5  11   77.42    2.30
   5  -5  11   71.77    1.93
   5  -5  11   76.44    2.35
   5  -5  11   74.41    2.20
   5  -5  11   76.95    2.19
   5  -5  11   78.53    2.13
   5  -5  12   34.58    1.37
   5  -5  12   33.24    1.20
   5  -5  12   37.71    1.56
   5  -5  13    1.22    0.63
   5  -5  13    1.24    0.67
   5  -5  13    1.98    0.84
   5  -5  13    1.75    0.73
   5  -5  13    0.98    0.48
   5  -5  13    1.19    0.79
   5  -5  13    0.67    0.70
   5  -5  14   76.44    1.79
   5  -5  14   73.75    1.71
   5  -5  14   69.59    1.61
   5  -5  14   71.60    1.77
   5  -5  14   74.58    1.86
   5  -5  14   79.24    1.87
   5  -5  15    0.66    0.47
   5  -5  15    0.40    0.48
   5  -5  15    0.92    0.52
   5  -5  15    0.70    0.56
   5  -5  15    0.40    0.46
   5  -5  16   80.24    1.33
   5  -5  16   77.05    1.42
   5  -5  16   76.20    1.39
   5  -4 -12   14.12    0.63
   5  -4 -11   32.35    1.10
   5  -4 -10   25.53    1.11
   5  -4  -9    6.51    0.81
   5  -4  -8   70.45    2.02
   5  -4  -8   67.64    2.00
   5  -4  -7   19.79    1.11
   5  -4  -7   13.61    1.07
   5  -4  -6   77.82    2.11
   5  -4  -6   86.47    2.05
   5  -4  -6   78.64    2.20
   5  -4  -6   90.73    2.21
   5  -4  -6   75.85    2.20
   5  -4  -5   44.42    1.59
   5  -4  -5   45.54    1.80
   5  -4  -5   44.37    1.52
   5  -4  -4   93.50    2.31
   5  -4  -4   92.03    2.26
   5  -4  -4   75.31    2.30
   5  -4  -4   88.56    2.16
   5  -4  -4   80.78    2.48
   5  -4  -3   46.23    1.62
   5  -4  -3   44.06    1.58
   5  -4  -3   40.93    1.63
   5  -4  -3   44.93    1.45
   5  -4  -3   43.84    1.84
   5  -4  -3   45.38    1.61
   5  -4  -2  169.06    3.47
   5  -4  -2  171.60    3.48
   5  -4  -2  163.55    3.34
   5  -4  -2  164.90    3.18
   5  -4  -2  160.75    3.28
   5  -4  -2  175.46    3.69
   5  -4  -1    0.03    0.68
   5  -4  -1   -0.18    0.77
   5  -4  -1    0.46    0.45
   5  -4  -1   -0.44    0.79
   5  -4  -1    0.37    0.51
   5  -4  -1   -0.01    0.61
   5  -4  -1    0.11    0.98
   5  -4  -1    0.75    0.83
   5  -4   0   18.80    1.11
   5  -4   0   19.47    1.17
   5  -4   0   20.08    1.24
   5  -4   0   18.70    0.93
   5  -4   0   18.23    0.96
   5  -4   0   20.69    1.23
   5  -4   0   19.50    0.90
   5  -4   0   19.59    1.33
   5  -4   0   20.80    1.18
   5  -4   0   18.94    1.05
   5  -4   1    0.13    0.67
   5  -4   1    0.23    0.82
   5  -4   1    0.14    0.60
   5  -4   1    1.34    0.56
   5  -4   1    0.60    0.77
   5  -4   1   -0.03    0.50
   5  -4   1    0.06    0.50
   5  -4   1    0.50    0.80
   5  -4   1    0.19    0.54
   5  -4   1    0.46    0.76
   5  -4   1   -0.30    0.74
   5  -4   1    0.21    0.59
   5  -4   1   -0.19    0.96
   5  -4   1    0.14    0.75
   5  -4   2  159.25    3.44
   5  -4   2  159.92    3.33
   5  -4   2  163.14    3.44
   5  -4   2  162.92    3.47
   5  -4   2  157.42    2.99
   5  -4   2  157.31    3.21
   5  -4   2  143.59    2.83
   5  -4   2  156.57    3.15
   5  -4   2  150.01    3.02
   5  -4   2  163.18    3.15
   5  -4   2  160.07    3.33
   5  -4   2  158.40    3.31
   5  -4   2  161.07    3.25
   5  -4   2  170.10    3.39
   5  -4   2  158.47    2.90
   5  -4   2  168.83    3.14
   5  -4   2  157.71    3.02
   5  -4   3   43.97    1.33
   5  -4   3   45.37    1.72
   5  -4   3   46.34    1.63
   5  -4   3   46.23    1.71
   5  -4   3   46.78    1.72
   5  -4   3   44.20    1.33
   5  -4   3   40.80    1.26
   5  -4   3   45.18    1.50
   5  -4   3   44.14    1.41
   5  -4   3   43.19    1.59
   5  -4   3   41.59    1.56
   5  -4   3   45.98    1.52
   5  -4   3   44.22    1.61
   5  -4   3   46.77    1.66
   5  -4   3   48.48    1.48
   5  -4   3   46.97    1.38
   5  -4   4   68.47    1.72
   5  -4   4   69.34    2.13
   5  -4   4   62.99    1.75
   5  -4   4   71.17    2.16
   5  -4   4   66.99    1.95
   5  -4   4   69.25    2.11
   5  -4   4   71.57    2.07
   5  -4   4   67.90    1.66
   5  -4   4   70.59    1.97
   5  -4   4   67.55    1.81
   5  -4   4   70.13    1.95
   5  -4   4   69.73    1.92
   5  -4   4   61.14    1.90
   5  -4   4   67.76    2.02
   5  -4   4   67.43    1.88
   5  -4   4   69.85    2.00
   5  -4   4   69.97    1.76
   5  -4   4   70.69    1.73
   5  -4   5   80.80    1.89
   5  -4   5   68.06    1.75
   5  -4   5   75.58    2.28
   5  -4   5   72.80    2.10
   5  -4   5   75.89    2.29
   5  -4   5   76.19    2.20
   5  -4   5   76.70    2.22
   5  -4   5   81.80    1.81
   5  -4   5   79.36    2.17
   5  -4   5   74.77    1.99
   5  -4   5   70.95    1.97
   5  -4   5   76.57    2.05
   5  -4   5   70.29    2.05
   5  -4   5   74.79    2.18
   5  -4   5   80.93    1.90
   5  -4   5   73.41    2.16
   5  -4   5   79.62    2.04
   5  -4   5   79.43    2.08
   5  -4   6  224.38    4.59
   5  -4   6  221.92    4.30
   5  -4   6  221.15    4.58
   5  -4   6  224.47    4.44
   5  -4   6  222.51    4.32
   5  -4   6  230.90    3.88
   5  -4   6  236.20    4.44
   5  -4   6  223.31    4.26
   5  -4   6  233.06    4.22
   5  -4   6  210.49    4.00
   5  -4   6  210.62    4.18
   5  -4   6  229.32    4.48
   5  -4   6  230.84    4.25
   5  -4   6  215.78    4.38
   5  -4   6  228.21    4.07
   5  -4   6  227.98    4.11
   5  -4   6  235.55    3.94
   5  -4   7   80.41    2.47
   5  -4   7   74.94    2.22
   5  -4   7   79.81    2.52
   5  -4   7   76.92    2.32
   5  -4   7   74.06    2.11
   5  -4   7   80.96    1.88
   5  -4   7   76.64    2.29
   5  -4   7   76.07    2.21
   5  -4   7   78.13    2.14
   5  -4   7   78.56    2.16
   5  -4   7   76.48    2.33
   5  -4   7   75.16    2.36
   5  -4   7   72.45    2.02
   5  -4   7   78.31    1.89
   5  -4   8  157.11    3.50
   5  -4   8  165.73    3.68
   5  -4   8  173.98    3.99
   5  -4   8  156.88    3.65
   5  -4   8  147.33    3.21
   5  -4   8  166.11    3.13
   5  -4   8  166.01    3.69
   5  -4   8  162.34    3.42
   5  -4   8  157.50    3.45
   5  -4   8  160.57    3.38
   5  -4   8  157.08    3.66
   5  -4   8  163.02    3.90
   5  -4   8  149.95    3.13
   5  -4   8  167.81    3.06
   5  -4   9   97.56    2.63
   5  -4   9   94.66    2.55
   5  -4   9   97.94    2.76
   5  -4   9  101.78    2.89
   5  -4   9   98.78    2.79
   5  -4   9  103.21    2.58
   5  -4   9   98.04    2.61
   5  -4   9   95.48    2.48
   5  -4   9   98.55    2.87
   5  -4   9  106.82    3.04
   5  -4   9   93.40    2.27
   5  -4   9   99.89    2.17
   5  -4  10  184.69    3.89
   5  -4  10  174.90    3.78
   5  -4  10  200.02    4.44
   5  -4  10  175.00    3.36
   5  -4  10  188.68    3.84
   5  -4  10  185.60    3.84
   5  -4  10  178.38    3.69
   5  -4  10  197.57    4.31
   5  -4  10  177.30    3.84
   5  -4  10  180.78    3.38
   5  -4  10  191.56    3.31
   5  -4  11   97.97    2.64
   5  -4  11   98.64    2.92
   5  -4  11  108.82    2.99
   5  -4  11  103.81    2.60
   5  -4  11  104.82    2.66
   5  -4  11   96.81    2.46
   5  -4  11  107.67    3.00
   5  -4  11  100.89    2.20
   5  -4  12   48.71    1.66
   5  -4  12   46.45    1.72
   5  -4  12   46.05    1.70
   5  -4  12   46.40    1.89
   5  -4  12   47.45    1.87
   5  -4  13  174.62    3.36
   5  -4  13  182.49    3.75
   5  -4  14   15.45    0.94
   5  -4  14   15.96    1.03
   5  -4  14   15.02    0.97
   5  -4  14   12.17    0.75
   5  -4  14   15.49    1.03
   5  -4  14   14.84    1.00
   5  -4  15  108.13    2.09
   5  -4  15  100.33    2.00
   5  -4  15  100.19    2.04
   5  -4  15   95.32    1.85
   5  -4  15  103.55    2.15
   5  -4  15  104.21    2.12
   5  -4  16    0.40    0.41
   5  -4  16    0.45    0.38
   5  -4  16    0.24    0.42
   5  -4  16    0.44    0.36
   5  -3 -12   30.61    0.86
   5  -3 -12   40.36    1.07
   5  -3 -11   46.88    1.37
   5  -3 -10   26.67    1.19
   5  -3 -10   31.21    1.22
   5  -3  -9    0.94    0.75
   5  -3  -9    0.94    0.69
   5  -3  -8   73.29    2.11
   5  -3  -8   75.08    2.14
   5  -3  -7  138.89    2.72
   5  -3  -7  136.31    3.09
   5  -3  -7  135.20    3.05
   5  -3  -6   40.95    1.36
   5  -3  -6   37.05    1.37
   5  -3  -6   40.31    1.53
   5  -3  -5  261.24    4.45
   5  -3  -5  263.84    4.63
   5  -3  -5  250.17    4.57
   5  -3  -4    4.01    0.79
   5  -3  -4    4.14    0.80
   5  -3  -4    3.94    0.74
   5  -3  -4    3.85    0.92
   5  -3  -4    4.62    0.71
   5  -3  -4    3.62    0.96
   5  -3  -3  102.67    2.45
   5  -3  -3  103.76    2.40
   5  -3  -3   91.19    2.29
   5  -3  -3  101.36    2.27
   5  -3  -3   94.79    2.50
   5  -3  -2   28.96    1.29
   5  -3  -2   27.72    1.27
   5  -3  -2   28.71    1.31
   5  -3  -2   25.81    1.25
   5  -3  -2   29.61    1.13
   5  -3  -2   28.20    1.19
   5  -3  -2   26.30    1.40
   5  -3  -1  143.64    3.06
   5  -3  -1  155.78    3.18
   5  -3  -1  139.25    2.80
   5  -3  -1  153.62    3.12
   5  -3  -1  146.44    2.82
   5  -3  -1  140.94    2.95
   5  -3  -1  155.89    3.21
   5  -3   0    6.21    0.78
   5  -3   0    6.14    0.86
   5  -3   0    5.23    0.70
   5  -3   0    5.37    0.62
   5  -3   0    6.26    0.88
   5  -3   0    6.05    0.61
   5  -3   0    6.85    1.03
   5  -3   0    6.30    0.74
   5  -3   0    5.88    0.64
   5  -3   0    6.14    0.94
   5  -3   1  515.70    8.09
   5  -3   1  512.58    8.06
   5  -3   1  499.89    7.94
   5  -3   1  525.62    8.07
   5  -3   1  511.21    7.80
   5  -3   1  510.94    7.82
   5  -3   1  481.86    7.60
   5  -3   1  472.12    7.55
   5  -3   1  512.31    7.80
   5  -3   1  517.21    7.97
   5  -3   1  511.79    7.89
   5  -3   1  524.90    8.01
   5  -3   1  556.48    7.96
   5  -3   1  474.28    7.49
   5  -3   1  495.54    7.52
   5  -3   2   16.14    0.84
   5  -3   2   18.67    1.07
   5  -3   2   18.38    1.11
   5  -3   2   19.59    1.15
   5  -3   2   18.49    1.15
   5  -3   2   17.21    0.91
   5  -3   2   17.39    0.99
   5  -3   2   16.44    1.00
   5  -3   2   18.25    0.97
   5  -3   2   17.22    0.86
   5  -3   2   17.53    1.09
   5  -3   2   17.72    1.00
   5  -3   2   17.06    1.07
   5  -3   2   17.40    1.02
   5  -3   2   17.47    0.92
   5  -3   2   18.47    1.22
   5  -3   2   19.06    1.08
   5  -3   3  464.70    7.07
   5  -3   3  470.57    7.49
   5  -3   3  474.62    7.60
   5  -3   3  454.77    7.31
   5  -3   3  479.65    7.63
   5  -3   3  420.46    6.95
   5  -3   3  480.48    7.58
   5  -3   3  491.84    7.22
   5  -3   3  431.24    6.93
   5  -3   3  478.56    7.42
   5  -3   3  452.25    7.15
   5  -3   3  473.76    7.40
   5  -3   3  486.23    7.36
   5  -3   3  475.31    7.22
   5  -3   3  464.98    7.07
   5  -3   3  501.49    7.49
   5  -3   3  510.28    7.31
   5  -3   3  460.49    7.44
   5  -3   4    1.40    0.49
   5  -3   4    1.32    0.66
   5  -3   4    1.63    0.75
   5  -3   4    0.85    0.61
   5  -3   4    1.76    0.73
   5  -3   4    1.69    0.69
   5  -3   4    1.15    0.76
   5  -3   4    1.50    0.69
   5  -3   4    1.24    0.65
   5  -3   4    1.09    0.51
   5  -3   4    1.19    0.68
   5  -3   4    1.23    0.60
   5  -3   4    0.94    0.68
   5  -3   4    1.28    0.70
   5  -3   4    1.23    0.73
   5  -3   4    1.65    0.89
   5  -3   4    1.55    0.87
   5  -3   4    1.31    0.69
   5  -3   5  213.87    3.65
   5  -3   5  205.74    3.93
   5  -3   5  190.51    3.58
   5  -3   5  206.50    4.08
   5  -3   5  207.61    4.11
   5  -3   5  206.66    4.04
   5  -3   5  204.19    3.97
   5  -3   5  220.18    3.67
   5  -3   5  212.24    4.06
   5  -3   5  202.68    3.88
   5  -3   5  212.94    3.83
   5  -3   5  200.44    3.75
   5  -3   5  210.12    3.92
   5  -3   5  188.80    3.74
   5  -3   5  209.33    3.62
   5  -3   5  210.94    4.10
   5  -3   5  202.34    3.95
   5  -3   5  210.16    3.87
   5  -3   5  206.83    3.79
   5  -3   5  210.28    3.66
   5  -3   5  221.17    3.71
   5  -3   6  159.97    3.43
   5  -3   6  158.09    3.45
   5  -3   6  157.45    2.87
   5  -3   6  157.76    3.30
   5  -3   6  158.07    3.41
   5  -3   6  157.03    3.26
   5  -3   6  165.70    2.97
   5  -3   6  157.28    3.43
   5  -3   6  155.92    3.26
   5  -3   6  163.63    3.23
   5  -3   6  145.69    2.99
   5  -3   6  162.16    3.30
   5  -3   6  154.35    2.99
   5  -3   6  158.68    3.48
   5  -3   6  153.43    3.30
   5  -3   6  160.90    3.00
   5  -3   6  156.09    3.14
   5  -3   7  102.01    2.59
   5  -3   7   99.89    2.54
   5  -3   7  100.32    2.14
   5  -3   7  105.54    2.68
   5  -3   7   97.37    2.61
   5  -3   7   94.69    2.36
   5  -3   7  105.36    2.20
   5  -3   7  101.90    2.66
   5  -3   7  105.06    2.50
   5  -3   7   97.01    2.49
   5  -3   7   99.88    1.98
   5  -3   7  102.90    2.53
   5  -3   7  101.65    2.27
   5  -3   7   96.62    2.68
   5  -3   7  102.36    2.24
   5  -3   7   97.89    2.37
   5  -3   7   99.66    2.55
   5  -3   8   61.89    2.02
   5  -3   8   62.49    1.97
   5  -3   8   64.13    1.68
   5  -3   8   62.78    2.07
   5  -3   8   61.28    2.12
   5  -3   8   67.91    1.72
   5  -3   8   66.21    2.19
   5  -3   8   67.14    2.02
   5  -3   8   63.33    2.04
   5  -3   8   66.54    1.55
   5  -3   8   65.36    2.03
   5  -3   8   65.31    1.81
   5  -3   8   64.68    2.27
   5  -3   8   66.65    2.09
   5  -3   8   70.20    1.76
   5  -3   8   63.34    1.90
   5  -3   9  111.52    2.82
   5  -3   9  112.59    2.77
   5  -3   9  112.27    3.15
   5  -3   9  112.10    2.49
   5  -3   9  111.68    3.09
   5  -3   9  110.69    2.80
   5  -3   9  119.25    2.81
   5  -3   9  109.34    2.76
   5  -3   9  115.31    2.57
   5  -3   9  108.99    3.14
   5  -3   9  114.93    2.39
   5  -3   9  109.67    2.77
   5  -3   9  105.04    2.50
   5  -3  10   78.73    2.36
   5  -3  10   90.08    3.15
   5  -3  10   79.78    1.96
   5  -3  10   87.56    2.95
   5  -3  10   83.61    2.36
   5  -3  10   81.43    2.39
   5  -3  10   83.73    2.15
   5  -3  10   90.33    3.02
   5  -3  10   77.49    2.06
   5  -3  10   85.65    1.95
   5  -3  11   83.38    2.42
   5  -3  11   88.95    3.01
   5  -3  11   81.11    2.36
   5  -3  11   83.20    2.42
   5  -3  11   84.76    2.19
   5  -3  11   89.64    3.06
   5  -3  11   79.70    2.03
   5  -3  11   84.31    1.89
   5  -3  12   87.49    2.42
   5  -3  12   89.42    2.38
   5  -3  12   86.17    2.39
   5  -3  12   86.31    1.98
   5  -3  12   85.55    2.72
   5  -3  12   79.50    2.25
   5  -3  12   82.74    2.69
   5  -3  13   42.64    1.57
   5  -3  13   42.36    1.64
   5  -3  13   41.47    1.71
   5  -3  14  127.10    2.71
   5  -3  14  130.64    2.74
   5  -3  14  124.48    2.71
   5  -3  14  126.42    2.85
   5  -3  14  122.73    2.83
   5  -3  15   23.39    1.04
   5  -3  15   24.02    1.12
   5  -3  15   22.59    1.02
   5  -3  15   17.95    0.84
   5  -3  15   24.90    1.10
   5  -3  15   19.24    0.79
   5  -3  15   23.33    1.06
   5  -3  16   54.42    1.31
   5  -3  16   52.48    1.17
   5  -3  17    4.95    0.38
   5  -2 -12   14.16    0.70
   5  -2 -12   10.73    0.53
   5  -2 -11   62.07    1.58
   5  -2 -11   51.79    1.37
   5  -2 -10   55.81    1.65
   5  -2  -9   35.29    1.44
   5  -2  -9   38.14    1.43
   5  -2  -8   32.23    1.32
   5  -2  -8   35.86    1.49
   5  -2  -8   36.43    1.45
   5  -2  -7   11.09    0.78
   5  -2  -7   13.83    1.01
   5  -2  -7   13.62    1.11
   5  -2  -7   12.21    1.04
   5  -2  -6   24.94    1.08
   5  -2  -6   22.86    1.21
   5  -2  -6   25.84    1.31
   5  -2  -6   25.22    1.26
   5  -2  -5   80.55    1.99
   5  -2  -5   84.07    2.11
   5  -2  -5   78.10    2.13
   5  -2  -5   79.05    2.08
   5  -2  -4   92.58    2.18
   5  -2  -4   85.30    2.18
   5  -2  -4   94.24    2.31
   5  -2  -4   86.25    2.19
   5  -2  -3   95.41    2.36
   5  -2  -3   96.31    2.27
   5  -2  -3   97.81    2.28
   5  -2  -3   97.93    2.21
   5  -2  -3   95.30    2.32
   5  -2  -2   42.00    1.50
   5  -2  -2   38.61    1.39
   5  -2  -2   41.56    1.44
   5  -2  -2   38.75    1.27
   5  -2  -2   37.57    1.35
   5  -2  -2   42.11    1.53
   5  -2  -1   60.25    2.73
   5  -2  -1   63.35    1.81
   5  -2  -1   56.51    1.70
   5  -2  -1   61.59    1.79
   5  -2  -1   57.31    1.55
   5  -2  -1   60.47    1.74
   5  -2  -1   59.94    1.54
   5  -2  -1   59.75    1.81
   5  -2  -1   57.73    1.66
   5  -2   0  399.08    7.99
   5  -2   0  385.60    6.16
   5  -2   0  413.83    6.28
   5  -2   0  371.20    5.95
   5  -2   0  376.82    6.01
   5  -2   0  401.83    6.17
   5  -2   0  384.51    5.83
   5  -2   0  377.58    6.12
   5  -2   0  428.05    6.35
   5  -2   0  389.55    6.09
   5  -2   1   97.56    3.42
   5  -2   1   84.03    2.09
   5  -2   1   86.69    2.18
   5  -2   1   86.74    2.19
   5  -2   1   87.82    2.04
   5  -2   1   82.59    2.05
   5  -2   1   87.13    2.05
   5  -2   1   90.69    2.04
   5  -2   1   88.64    2.14
   5  -2   1   85.23    1.94
   5  -2   1   77.18    1.80
   5  -2   1   85.35    2.07
   5  -2   1   90.32    2.20
   5  -2   1   96.28    2.27
   5  -2   1   84.65    1.81
   5  -2   2  522.51    8.41
   5  -2   2  539.39    8.53
   5  -2   2  639.18   11.04
   5  -2   2  601.94    9.08
   5  -2   2  627.97    9.12
   5  -2   2  603.66    8.98
   5  -2   2  618.49    9.08
   5  -2   2  551.10    8.62
   5  -2   2  588.43    8.88
   5  -2   2  591.76    8.92
   5  -2   2  597.80    8.91
   5  -2   2  603.48    8.85
   5  -2   2  607.05    8.95
   5  -2   2  590.04    8.68
   5  -2   2  627.50    9.00
   5  -2   2  565.57    8.58
   5  -2   2  652.05    8.98
   5  -2   3    2.33    1.11
   5  -2   3    0.84    0.69
   5  -2   3    0.79    0.67
   5  -2   3    0.23    0.66
   5  -2   3    1.01    0.63
   5  -2   3    1.24    0.70
   5  -2   3    1.53    0.68
   5  -2   3    1.42    0.63
   5  -2   3    1.19    0.75
   5  -2   3    1.60    0.63
   5  -2   3    1.33    0.57
   5  -2   3    0.79    0.67
   5  -2   3    1.05    0.63
   5  -2   3    0.93    0.63
   5  -2   3    0.95    0.79
   5  -2   3    1.22    0.85
   5  -2   3    1.30    0.74
   5  -2   4  325.56    6.89
   5  -2   4  319.96    5.38
   5  -2   4  303.16    5.09
   5  -2   4  322.29    5.40
   5  -2   4  314.28    5.32
   5  -2   4  306.55    5.17
   5  -2   4  315.31    5.32
   5  -2   4  314.32    5.07
   5  -2   4  282.61    4.83
   5  -2   4  310.27    5.33
   5  -2   4  301.29    5.04
   5  -2   4  298.44    5.11
   5  -2   4  315.98    5.24
   5  -2   4  300.71    5.21
   5  -2   4  322.53    5.25
   5  -2   4  311.45    5.11
   5  -2   4  331.63    5.14
   5  -2   4  322.86    5.04
   5  -2   5    3.16    1.01
   5  -2   5    1.26    0.67
   5  -2   5    1.52    0.70
   5  -2   5    1.17    0.47
   5  -2   5    1.28    0.44
   5  -2   5    1.55    0.58
   5  -2   5    1.57    0.66
   5  -2   5    1.66    0.67
   5  -2   5    1.62    0.50
   5  -2   5    1.87    0.70
   5  -2   5    2.22    0.54
   5  -2   5    1.96    0.72
   5  -2   5    1.62    0.73
   5  -2   5    1.71    0.63
   5  -2   5    1.66    0.63
   5  -2   5    2.04    0.76
   5  -2   5    1.84    0.72
   5  -2   5    1.53    0.83
   5  -2   5    1.92    0.62
   5  -2   5    1.47    0.67
   5  -2   5    1.60    0.90
   5  -2   5    1.81    0.82
   5  -2   5    2.08    0.70
   5  -2   6  163.33    3.04
   5  -2   6  170.99    3.09
   5  -2   6  174.99    3.48
   5  -2   6  175.31    2.98
   5  -2   6  176.12    3.46
   5  -2   6  175.39    3.53
   5  -2   6  173.59    3.52
   5  -2   6  170.64    3.36
   5  -2   6  179.37    3.17
   5  -2   6  171.84    3.61
   5  -2   6  177.75    2.97
   5  -2   6  172.49    3.42
   5  -2   6  179.51    3.41
   5  -2   6  159.00    3.12
   5  -2   6  179.43    3.53
   5  -2   6  169.30    3.65
   5  -2   6  175.89    3.19
   5  -2   6  179.78    3.25
   5  -2   6  169.17    3.38
   5  -2   6  173.73    3.38
   5  -2   7   36.43    1.47
   5  -2   7   36.54    1.40
   5  -2   7   34.91    1.42
   5  -2   7   36.97    1.18
   5  -2   7   33.87    1.46
   5  -2   7   33.50    1.29
   5  -2   7   35.51    1.17
   5  -2   7   34.03    1.53
   5  -2   7   37.39    1.44
   5  -2   7   35.28    1.49
   5  -2   7   37.08    1.09
   5  -2   7   33.03    1.61
   5  -2   7   35.86    1.29
   5  -2   7   34.45    1.48
   5  -2   7   33.58    1.34
   5  -2   7   37.20    1.32
   5  -2   8  272.10    5.07
   5  -2   8  274.81    5.02
   5  -2   8  294.42    4.73
   5  -2   8  265.59    5.19
   5  -2   8  284.14    4.85
   5  -2   8  283.39    4.67
   5  -2   8  280.85    5.39
   5  -2   8  291.56    5.10
   5  -2   8  278.00    5.06
   5  -2   8  293.27    4.54
   5  -2   8  273.82    5.38
   5  -2   8  283.31    4.80
   5  -2   8  270.92    4.73
   5  -2   8  267.34    4.90
   5  -2   8  268.37    4.85
   5  -2   8  293.09    4.73
   5  -2   9   89.91    2.47
   5  -2   9   94.15    2.15
   5  -2   9   84.49    2.66
   5  -2   9   88.51    2.13
   5  -2   9   87.41    2.79
   5  -2   9   93.38    2.14
   5  -2   9   93.33    2.45
   5  -2   9   88.13    2.46
   5  -2   9   93.36    2.00
   5  -2   9   87.22    2.81
   5  -2   9   89.07    2.23
   5  -2   9   88.99    2.19
   5  -2   9   93.12    2.10
   5  -2   9   82.71    2.26
   5  -2  10  167.61    3.69
   5  -2  10  174.25    3.32
   5  -2  10  182.44    4.48
   5  -2  10  163.67    3.18
   5  -2  10  181.76    4.67
   5  -2  10  174.52    3.71
   5  -2  10  167.08    3.63
   5  -2  10  171.83    3.40
   5  -2  10  173.42    4.67
   5  -2  10  163.25    3.35
   5  -2  10  177.83    3.21
   5  -2  10  163.33    3.36
   5  -2  11   43.42    1.21
   5  -2  11   46.26    1.84
   5  -2  11   52.02    2.32
   5  -2  11   50.25    1.86
   5  -2  11   48.26    1.88
   5  -2  11   46.61    1.64
   5  -2  11   52.06    1.45
   5  -2  11   49.51    1.69
   5  -2  11   45.05    1.34
   5  -2  12   34.10    1.98
   5  -2  12   30.16    0.99
   5  -2  12   34.88    1.60
   5  -2  12   34.70    1.56
   5  -2  12   35.04    1.64
   5  -2  12   36.03    1.45
   5  -2  12   34.39    2.01
   5  -2  12   33.70    1.35
   5  -2  12   33.15    1.12
   5  -2  13  151.19    3.27
   5  -2  13  144.46    3.26
   5  -2  13  140.17    3.25
   5  -2  13  147.07    3.48
   5  -2  13  155.04    3.07
   5  -2  13  141.90    3.45
   5  -2  14   35.97    1.46
   5  -2  14   36.88    1.52
   5  -2  14   40.68    1.56
   5  -2  15   61.28    1.74
   5  -2  15   66.35    1.78
   5  -2  15   58.14    1.66
   5  -2  15   64.80    1.77
   5  -2  15   64.38    1.78
   5  -2  15   55.11    1.60
   5  -2  16   17.91    0.89
   5  -2  16   19.19    0.87
   5  -2  16   17.92    0.84
   5  -2  17   42.01    0.98
   5  -2  17   35.30    0.92
   5  -1 -12  105.90    2.09
   5  -1 -11    1.07    0.55
   5  -1 -11    0.79    0.58
   5  -1 -11    0.70    0.52
   5  -1 -10  120.71    2.59
   5  -1 -10  111.83    2.43
   5  -1  -9    2.19    0.82
   5  -1  -9    1.64    0.73
   5  -1  -9    0.87    0.73
   5  -1  -8   65.40    1.91
   5  -1  -8   66.26    2.42
   5  -1  -8   65.30    1.97
   5  -1  -7   78.35    1.81
   5  -1  -7   74.56    2.12
   5  -1  -7   80.63    2.19
   5  -1  -6  153.89    2.97
   5  -1  -6  153.55    3.20
   5  -1  -6  154.43    3.22
   5  -1  -5  139.32    2.77
   5  -1  -5  134.55    2.94
   5  -1  -5  136.91    2.88
   5  -1  -5  133.11    2.87
   5  -1  -4   90.94    2.12
   5  -1  -4   90.75    2.24
   5  -1  -4   87.23    1.89
   5  -1  -4   90.84    2.26
   5  -1  -3  148.77    2.98
   5  -1  -3  141.46    2.81
   5  -1  -3  130.17    2.85
   5  -1  -3  131.24    4.04
   5  -1  -3  126.37    2.72
   5  -1  -2   58.13    1.70
   5  -1  -2   58.31    1.64
   5  -1  -2   55.47    1.69
   5  -1  -2   56.33    2.61
   5  -1  -2   52.72    1.62
   5  -1  -1   18.04    1.01
   5  -1  -1   15.51    0.98
   5  -1  -1   18.29    1.00
   5  -1  -1   16.66    1.04
   5  -1  -1   15.50    0.89
   5  -1  -1   14.32    1.56
   5  -1   0   36.27    2.24
   5  -1   0   37.05    1.34
   5  -1   0   31.94    1.23
   5  -1   0   34.24    1.31
   5  -1   0   32.43    1.17
   5  -1   0   33.18    1.17
   5  -1   0   34.70    1.28
   5  -1   0   33.77    1.07
   5  -1   0   33.94    1.20
   5  -1   0   34.24    1.34
   5  -1   1  398.96    7.91
   5  -1   1  350.51    5.77
   5  -1   1  377.77    5.91
   5  -1   1  352.10    5.72
   5  -1   1  360.40    5.74
   5  -1   1  367.17    5.69
   5  -1   1  365.16    5.76
   5  -1   1  311.06    5.41
   5  -1   1  353.81    5.76
   5  -1   1  363.98    5.54
   5  -1   1  369.37    5.77
   5  -1   1  403.28    6.02
   5  -1   1  337.93    5.42
   5  -1   2  363.90    7.33
   5  -1   2  307.79    5.25
   5  -1   2  315.08    5.30
   5  -1   2  310.39    5.27
   5  -1   2  317.51    5.24
   5  -1   2  294.71    5.04
   5  -1   2  309.76    5.21
   5  -1   2  310.76    5.17
   5  -1   2  312.22    5.14
   5  -1   2  312.73    5.21
   5  -1   2  323.73    5.05
   5  -1   2  303.10    4.98
   5  -1   2  333.11    5.28
   5  -1   2  345.41    5.34
   5  -1   3  315.96    6.94
   5  -1   3  316.07    5.25
   5  -1   3  315.48    5.16
   5  -1   3  321.44    5.27
   5  -1   3  317.51    5.24
   5  -1   3  303.30    5.19
   5  -1   3  304.22    5.20
   5  -1   3  282.20    4.89
   5  -1   3  300.39    5.06
   5  -1   3  315.79    5.15
   5  -1   3  312.91    5.20
   5  -1   3  301.99    5.03
   5  -1   3  321.78    5.19
   5  -1   3  316.42    5.01
   5  -1   3  335.27    5.20
   5  -1   4   20.92    1.71
   5  -1   4   16.39    0.97
   5  -1   4   16.83    0.93
   5  -1   4   16.79    0.96
   5  -1   4   17.07    0.98
   5  -1   4   17.78    0.91
   5  -1   4   17.89    1.00
   5  -1   4   17.69    0.96
   5  -1   4   20.24    1.06
   5  -1   4   16.33    0.91
   5  -1   4   16.91    0.98
   5  -1   4   17.75    0.98
   5  -1   4   17.65    1.07
   5  -1   4   18.04    1.12
   5  -1   4   19.02    1.02
   5  -1   5  307.50    6.61
   5  -1   5  284.18    4.73
   5  -1   5  296.67    4.66
   5  -1   5  290.40    4.96
   5  -1   5  294.56    5.00
   5  -1   5  272.36    4.57
   5  -1   5  290.29    4.93
   5  -1   5  292.31    4.97
   5  -1   5  300.94    4.80
   5  -1   5  289.67    5.10
   5  -1   5  280.64    4.84
   5  -1   5  285.67    4.81
   5  -1   5  275.96    4.72
   5  -1   5  304.94    5.07
   5  -1   5  288.86    4.67
   5  -1   5  279.19    4.83
   5  -1   5  308.58    4.85
   5  -1   5  294.70    4.90
   5  -1   5  314.53    4.86
   5  -1   6   98.88    3.31
   5  -1   6   87.15    2.16
   5  -1   6   90.79    1.98
   5  -1   6   91.97    1.91
   5  -1   6   87.89    2.13
   5  -1   6   89.39    2.17
   5  -1   6   83.55    1.89
   5  -1   6   87.03    2.18
   5  -1   6   84.46    1.79
   5  -1   6   83.08    1.80
   5  -1   6   86.86    2.08
   5  -1   6   93.63    2.00
   5  -1   6   91.55    2.37
   5  -1   6   85.86    2.15
   5  -1   6   92.33    2.16
   5  -1   6   94.13    1.89
   5  -1   6   81.74    1.89
   5  -1   6   87.50    2.35
   5  -1   6   91.52    2.03
   5  -1   6   87.43    2.06
   5  -1   6   89.41    2.21
   5  -1   6   97.90    2.07
   5  -1   6   92.98    2.11
   5  -1   7  222.01    5.18
   5  -1   7  202.29    3.86
   5  -1   7  214.09    3.65
   5  -1   7  198.08    3.78
   5  -1   7  189.11    3.38
   5  -1   7  198.67    3.86
   5  -1   7  192.64    3.63
   5  -1   7  198.30    3.35
   5  -1   7  208.79    3.57
   5  -1   7  206.48    3.73
   5  -1   7  205.54    4.10
   5  -1   7  215.29    3.47
   5  -1   7  212.41    3.92
   5  -1   7  198.41    3.84
   5  -1   7  196.54    4.08
   5  -1   7  197.11    3.56
   5  -1   7  206.19    3.67
   5  -1   7  209.76    3.70
   5  -1   7  199.66    3.83
   5  -1   8    8.53    0.67
   5  -1   8   11.76    0.82
   5  -1   8   11.13    1.02
   5  -1   8   11.23    0.97
   5  -1   8   10.09    0.64
   5  -1   8    9.82    0.82
   5  -1   8   10.16    0.74
   5  -1   8   10.17    1.12
   5  -1   8   11.36    1.00
   5  -1   8   10.78    1.08
   5  -1   8   11.29    0.75
   5  -1   8   10.47    1.17
   5  -1   8   10.40    0.86
   5  -1   8   10.29    0.94
   5  -1   8   10.21    0.94
   5  -1   8    9.62    1.16
   5  -1   9  205.16    4.19
   5  -1   9  218.86    3.88
   5  -1   9  205.22    4.22
   5  -1   9  220.19    4.25
   5  -1   9  207.74    4.16
   5  -1   9  228.70    3.73
   5  -1   9  219.32    3.85
   5  -1   9  194.88    3.99
   5  -1   9  206.29    4.59
   5  -1   9  203.72    3.86
   5  -1   9  215.97    3.95
   5  -1   9  209.73    3.82
   5  -1   9  217.32    3.80
   5  -1   9  211.92    4.59
   5  -1  10   46.44    1.43
   5  -1  10   53.00    2.42
   5  -1  10   47.39    1.84
   5  -1  10   50.46    1.57
   5  -1  10   51.99    1.87
   5  -1  10   47.87    1.86
   5  -1  10   50.23    1.46
   5  -1  10   50.19    2.39
   5  -1  10   48.50    1.67
   5  -1  10   46.80    1.60
   5  -1  10   44.88    1.74
   5  -1  10   51.15    1.53
   5  -1  11  140.72    2.86
   5  -1  11  178.55    4.70
   5  -1  11  147.12    2.77
   5  -1  11  156.84    3.59
   5  -1  11  167.91    3.23
   5  -1  11  194.39    4.83
   5  -1  11  165.13    3.28
   5  -1  11  155.05    3.23
   5  -1  11  163.08    3.00
   5  -1  11  149.26    3.22
   5  -1  11  160.89    3.54
   5  -1  11  156.87    3.52
   5  -1  12    9.57    0.70
   5  -1  12   10.49    1.17
   5  -1  12   10.34    1.13
   5  -1  12   10.82    1.21
   5  -1  12   12.39    1.11
   5  -1  12   10.23    1.43
   5  -1  12   11.02    1.03
   5  -1  12   11.93    0.83
   5  -1  12    9.86    1.07
   5  -1  13  101.00    2.79
   5  -1  13   94.59    1.99
   5  -1  13  100.01    2.69
   5  -1  13  105.25    2.70
   5  -1  13  103.47    2.68
   5  -1  13  105.85    2.35
   5  -1  13  112.78    2.51
   5  -1  13  107.00    2.85
   5  -1  13  103.57    2.48
   5  -1  14  128.80    2.52
   5  -1  14  132.73    3.02
   5  -1  15   48.30    1.60
   5  -1  15   50.32    1.63
   5  -1  15   51.13    1.57
   5  -1  15   50.06    1.58
   5  -1  16   38.26    1.30
   5  -1  16   36.52    1.21
   5  -1  16   39.26    1.22
   5  -1  17   22.45    0.82
   5  -1  17   25.83    0.85
   5  -1  17   14.42    0.63
   5  -1  17   16.04    0.59
   5   0 -12    6.46    0.58
   5   0 -12    5.37    0.57
   5   0 -11   29.49    0.92
   5   0 -11   30.92    1.16
   5   0 -10    5.25    0.71
   5   0 -10    5.21    0.82
   5   0  -9   72.95    2.22
   5   0  -9   75.42    2.07
   5   0  -8   43.52    2.06
   5   0  -8   42.05    1.58
   5   0  -7   35.08    1.48
   5   0  -7   35.66    1.52
   5   0  -7   31.58    1.13
   5   0  -7   30.47    1.27
   5   0  -6   46.53    1.42
   5   0  -6   46.17    1.67
   5   0  -6   47.59    2.00
   5   0  -6   50.49    1.68
   5   0  -5  147.39    2.85
   5   0  -5  149.07    3.15
   5   0  -5  144.90    2.97
   5   0  -4   31.82    1.22
   5   0  -4   33.75    1.23
   5   0  -4   24.14    1.76
   5   0  -4   28.37    0.97
   5   0  -4   34.09    1.36
   5   0  -4   28.30    1.36
   5   0  -3  120.94    2.50
   5   0  -3  115.37    2.28
   5   0  -3  120.16    2.64
   5   0  -3  121.89    2.67
   5   0  -2  233.90    4.12
   5   0  -2  223.75    5.69
   5   0  -2  224.43    3.96
   5   0  -2  237.43    4.14
   5   0  -2  213.53    3.86
   5   0  -1   64.95    1.53
   5   0  -1   70.69    1.87
   5   0  -1   65.01    1.72
   5   0  -1   67.87    1.82
   5   0  -1   66.77    1.72
   5   0  -1   66.50    1.70
   5   0   0  328.97    5.34
   5   0   0  324.40    5.20
   5   0   0  342.32    5.47
   5   0   0  341.48    5.32
   5   0   0  322.11    5.35
   5   0   0  340.87    5.51
   5   0   0  331.77    5.37
   5   0   0  321.20    5.32
   5   0   1  174.05    3.06
   5   0   1  204.52    5.35
   5   0   1  196.56    3.32
   5   0   1  179.18    3.36
   5   0   1  182.40    3.35
   5   0   1  190.48    3.25
   5   0   1  195.31    3.47
   5   0   1  180.20    3.45
   5   0   1  179.31    3.31
   5   0   1  178.40    3.26
   5   0   1  168.83    3.12
   5   0   1  175.62    3.30
   5   0   1  187.82    3.33
   5   0   1  196.74    3.59
   5   0   2  155.08    4.57
   5   0   2  153.16    2.82
   5   0   2  162.61    3.01
   5   0   2  141.81    2.88
   5   0   2  141.30    2.84
   5   0   2  144.47    2.89
   5   0   2  148.73    2.84
   5   0   2  156.61    2.88
   5   0   2  139.45    2.74
   5   0   2  137.03    2.67
   5   0   2  153.19    2.79
   5   0   2  149.11    2.89
   5   0   2  167.99    3.10
   5   0   2  152.07    2.88
   5   0   3  188.19    5.05
   5   0   3  166.98    3.10
   5   0   3  174.67    3.27
   5   0   3  175.55    3.25
   5   0   3  162.63    3.10
   5   0   3  173.25    3.29
   5   0   3  169.53    3.28
   5   0   3  172.70    3.18
   5   0   3  176.33    3.24
   5   0   3  174.18    3.24
   5   0   3  177.52    3.24
   5   0   3  174.37    3.18
   5   0   3  184.91    3.33
   5   0   4  408.54    8.12
   5   0   4  364.93    5.76
   5   0   4  379.01    5.89
   5   0   4  357.34    5.91
   5   0   4  344.49    5.68
   5   0   4  375.39    5.92
   5   0   4  353.99    5.83
   5   0   4  369.48    6.03
   5   0   4  363.86    6.04
   5   0   4  384.92    6.02
   5   0   4  382.04    5.94
   5   0   4  380.01    5.96
   5   0   4  372.35    5.90
   5   0   4  394.82    5.96
   5   0   5    1.29    1.09
   5   0   5    0.30    0.55
   5   0   5    0.10    0.56
   5   0   5    0.32    0.55
   5   0   5    0.34    0.58
   5   0   5    0.87    0.54
   5   0   5    0.60    0.73
   5   0   5   -0.01    0.61
   5   0   5    0.18    0.57
   5   0   5    0.79    0.59
   5   0   5    0.34    0.53
   5   0   5    0.12    0.54
   5   0   5    0.20    0.58
   5   0   5   -0.02    0.65
   5   0   5    0.15    0.88
   5   0   5    0.65    0.71
   5   0   6  554.28   10.01
   5   0   6  493.77    7.68
   5   0   6  527.19    7.74
   5   0   6  500.48    7.62
   5   0   6  496.70    7.61
   5   0   6  537.91    7.93
   5   0   6  526.00    7.80
   5   0   6  518.16    7.87
   5   0   6  524.07    8.21
   5   0   6  522.76    7.98
   5   0   6  475.78    7.84
   5   0   6  550.23    7.75
   5   0   6  498.99    8.20
   5   0   6  513.70    7.81
   5   0   6  539.33    7.86
   5   0   6  518.16    7.99
   5   0   7   40.99    2.19
   5   0   7   37.16    1.19
   5   0   7   41.55    1.45
   5   0   7   43.31    1.25
   5   0   7   44.15    1.39
   5   0   7   39.46    1.18
   5   0   7   40.32    1.16
   5   0   7   40.85    1.26
   5   0   7   41.65    1.35
   5   0   7   40.65    1.55
   5   0   7   44.87    1.51
   5   0   7   40.66    1.49
   5   0   7   44.40    1.27
   5   0   7   41.14    1.67
   5   0   7   39.32    1.28
   5   0   7   40.48    1.39
   5   0   7   41.95    1.45
   5   0   7   40.03    1.60
   5   0   8  136.61    3.96
   5   0   8  125.53    2.51
   5   0   8  135.35    3.01
   5   0   8  148.42    2.88
   5   0   8  139.49    2.57
   5   0   8  136.42    2.76
   5   0   8  141.79    2.69
   5   0   8  135.57    3.16
   5   0   8  150.75    2.68
   5   0   8  144.92    3.11
   5   0   8  134.03    3.02
   5   0   8  137.68    3.26
   5   0   8  134.49    2.78
   5   0   8  145.49    2.89
   5   0   8  131.30    3.01
   5   0   8  142.15    2.88
   5   0   9   22.14    1.09
   5   0   9   20.55    1.24
   5   0   9   19.94    0.87
   5   0   9   21.16    1.26
   5   0   9   19.21    1.27
   5   0   9   23.51    1.01
   5   0   9   23.48    1.19
   5   0   9   19.29    1.37
   5   0   9   21.37    1.42
   5   0   9   20.72    1.10
   5   0   9   22.52    1.21
   5   0   9   20.97    1.00
   5   0   9   21.27    0.99
   5   0   9   20.46    1.38
   5   0  10   19.06    1.46
   5   0  10   15.11    0.95
   5   0  10   15.76    0.88
   5   0  10   16.59    1.28
   5   0  10   18.75    1.05
   5   0  10   16.87    1.23
   5   0  10   16.41    1.31
   5   0  10   17.03    0.94
   5   0  10   18.03    1.48
   5   0  10   16.35    1.08
   5   0  10   18.11    1.20
   5   0  10   18.27    1.08
   5   0  10   15.28    1.32
   5   0  11    0.11    1.01
   5   0  11    0.48    0.74
   5   0  11    0.83    0.52
   5   0  11    0.94    0.95
   5   0  11    1.50    0.71
   5   0  11    0.52    1.17
   5   0  11    1.58    0.84
   5   0  11    1.37    0.96
   5   0  11    0.97    1.02
   5   0  11    1.39    0.91
   5   0  11    0.57    1.01
   5   0  11    1.16    0.69
   5   0  12  238.55    4.16
   5   0  12  250.25    5.10
   5   0  12  266.52    4.64
   5   0  12  261.20    5.00
   5   0  12  254.37    4.97
   5   0  12  287.20    5.38
   5   0  12  269.20    4.73
   5   0  12  255.34    4.69
   5   0  12  267.93    4.36
   5   0  12  259.11    4.68
   5   0  13  176.60    3.72
   5   0  13  143.39    3.51
   5   0  13  148.49    2.81
   5   0  13  163.48    3.59
   5   0  13  157.74    3.55
   5   0  13  168.63    3.66
   5   0  13  175.96    3.38
   5   0  13  163.53    3.35
   5   0  13  167.25    3.28
   5   0  14   21.14    1.28
   5   0  14   21.49    1.18
   5   0  15   43.31    1.46
   5   0  15   38.20    1.15
   5   0  15   40.38    1.54
   5   0  15   40.64    1.53
   5   0  15   43.54    1.45
   5   0  15   44.64    1.46
   5   0  15   41.46    1.22
   5   0  16   25.53    0.98
   5   0  16   25.77    1.15
   5   0  16   27.50    1.16
   5   0  17   10.57    0.65
   5   0  17   12.59    0.74
   5   0  18    1.19    0.27
   5   1 -12   20.01    0.84
   5   1 -12   20.06    0.83
   5   1 -11    0.48    0.67
   5   1 -11    0.92    0.57
   5   1 -10    2.15    0.57
   5   1 -10    1.36    0.77
   5   1  -9    0.51    0.67
   5   1  -9   -0.03    0.82
   5   1  -8  121.48    2.88
   5   1  -8  122.59    2.62
   5   1  -8  120.89    3.06
   5   1  -7   36.17    1.94
   5   1  -7   31.86    1.58
   5   1  -6  146.65    3.26
   5   1  -6  150.70    3.29
   5   1  -6  141.35    2.76
   5   1  -6  135.92    2.86
   5   1  -5   33.43    1.20
   5   1  -5   33.62    1.32
   5   1  -5   30.62    1.46
   5   1  -4  148.23    2.83
   5   1  -4  135.04    4.14
   5   1  -4  137.73    2.93
   5   1  -4  144.32    3.10
   5   1  -3  273.94    4.55
   5   1  -3  261.03    6.29
   5   1  -3  262.99    4.27
   5   1  -3  280.83    4.75
   5   1  -3  267.27    4.69
   5   1  -3  271.87    4.81
   5   1  -2  117.95    2.50
   5   1  -2  134.59    4.24
   5   1  -2  126.34    2.36
   5   1  -2  129.23    2.50
   5   1  -2  120.86    2.64
   5   1  -2  118.82    2.64
   5   1  -2  126.14    2.74
   5   1  -1  608.54    8.98
   5   1  -1  658.18    9.50
   5   1  -1  633.71   11.71
   5   1  -1  612.86    9.08
   5   1  -1  627.80    9.27
   5   1  -1  626.35    9.26
   5   1  -1  662.49    9.46
   5   1  -1  654.10    9.47
   5   1  -1  584.94    9.11
   5   1   0  133.22    2.63
   5   1   0  130.73    2.67
   5   1   0  120.61    2.32
   5   1   0  127.49    2.67
   5   1   0  136.71    4.26
   5   1   0  121.32    2.38
   5   1   0  133.54    2.55
   5   1   0  125.85    2.51
   5   1   0  125.27    2.51
   5   1   0  120.40    2.45
   5   1   0  117.09    2.29
   5   1   1  157.64    2.85
   5   1   1  180.51    3.28
   5   1   1  159.81    3.14
   5   1   1  168.79    3.15
   5   1   1  176.09    3.01
   5   1   1  178.58    3.24
   5   1   1  184.67    5.05
   5   1   1  186.95    3.19
   5   1   1  172.61    3.11
   5   1   1  166.82    3.03
   5   1   1  174.59    3.14
   5   1   1  166.13    3.05
   5   1   1  158.85    3.05
   5   1   2  174.25    3.09
   5   1   2  219.26    5.47
   5   1   2  206.78    3.48
   5   1   2  191.22    3.49
   5   1   2  193.78    3.49
   5   1   2  194.31    3.51
   5   1   2  199.66    3.36
   5   1   2  185.86    3.39
   5   1   2  200.94    3.55
   5   1   2  188.26    3.40
   5   1   2  200.07    3.45
   5   1   2  186.33    3.30
   5   1   2  200.60    3.47
   5   1   2  208.75    3.66
   5   1   3  153.68    4.50
   5   1   3  153.52    2.82
   5   1   3  160.20    2.90
   5   1   3  136.51    2.79
   5   1   3  143.01    2.87
   5   1   3  144.11    2.87
   5   1   3  148.07    2.75
   5   1   3  139.98    2.78
   5   1   3  150.66    2.85
   5   1   3  136.04    2.58
   5   1   3  147.48    2.81
   5   1   3  156.45    2.97
   5   1   3  149.33    2.80
   5   1   4   33.85    2.17
   5   1   4   33.81    1.14
   5   1   4   33.24    1.17
   5   1   4   31.18    1.13
   5   1   4   30.67    1.26
   5   1   4   31.81    1.20
   5   1   4   30.36    1.21
   5   1   4   32.23    1.20
   5   1   4   31.32    1.11
   5   1   4   32.90    1.21
   5   1   4   31.90    1.10
   5   1   4   31.96    1.24
   5   1   4   32.59    1.31
   5   1   5  292.25    4.77
   5   1   5  302.89    4.84
   5   1   5  287.51    4.72
   5   1   5  296.27    4.76
   5   1   5  288.63    4.92
   5   1   5  296.14    4.84
   5   1   5  291.42    4.96
   5   1   5  285.47    4.79
   5   1   5  280.77    4.99
   5   1   5  313.52    4.86
   5   1   5  297.47    4.86
   5   1   5  308.75    4.88
   5   1   5  294.10    4.95
   5   1   5  301.13    6.79
   5   1   5  277.86    4.67
   5   1   5  301.25    4.80
   5   1   6   12.97    1.50
   5   1   6   12.73    0.76
   5   1   6   11.78    0.75
   5   1   6   11.28    0.75
   5   1   6   12.06    0.80
   5   1   6   12.24    0.76
   5   1   6   12.15    0.77
   5   1   6   11.47    0.84
   5   1   6   11.61    0.77
   5   1   6   13.32    0.83
   5   1   6   11.48    0.89
   5   1   6   12.54    1.02
   5   1   6   13.38    0.86
   5   1   6   11.03    0.74
   5   1   6   12.38    0.89
   5   1   6   11.03    0.72
   5   1   6   12.26    0.89
   5   1   6   11.41    1.12
   5   1   7   66.13    2.87
   5   1   7   61.09    1.51
   5   1   7   66.16    1.58
   5   1   7   68.65    1.66
   5   1   7   63.23    1.56
   5   1   7   68.55    1.58
   5   1   7   61.71    1.79
   5   1   7   61.93    1.57
   5   1   7   65.55    1.68
   5   1   7   65.46    1.85
   5   1   7   65.94    1.91
   5   1   7   67.29    1.85
   5   1   7   62.88    1.79
   5   1   7   73.15    1.70
   5   1   7   62.85    1.59
   5   1   7   65.44    1.98
   5   1   7   59.72    1.64
   5   1   7   64.43    1.78
   5   1   7   64.16    1.52
   5   1   7   63.68    1.95
   5   1   8   13.32    1.41
   5   1   8   13.09    0.71
   5   1   8   13.37    0.82
   5   1   8   13.69    0.77
   5   1   8   13.93    1.08
   5   1   8   13.81    0.86
   5   1   8   12.98    0.77
   5   1   8   14.42    1.05
   5   1   8   13.13    1.02
   5   1   8   14.75    0.86
   5   1   8   12.10    1.03
   5   1   8   12.86    0.87
   5   1   8   13.78    1.12
   5   1   8   12.21    0.91
   5   1   8   13.40    1.01
   5   1   8   12.74    1.20
   5   1   9   14.10    0.98
   5   1   9   12.59    0.76
   5   1   9   15.15    0.88
   5   1   9   12.91    1.07
   5   1   9   11.85    1.12
   5   1   9   12.36    1.29
   5   1   9   13.79    1.19
   5   1   9   12.62    0.99
   5   1   9   14.19    1.07
   5   1   9   12.22    0.84
   5   1   9   13.51    0.80
   5   1   9   14.69    1.12
   5   1   9   14.03    1.07
   5   1  10   37.75    1.29
   5   1  10   42.85    1.74
   5   1  10   37.05    1.32
   5   1  10   44.01    1.52
   5   1  10   37.22    1.74
   5   1  10   39.05    1.69
   5   1  10   39.08    1.70
   5   1  10   44.27    1.36
   5   1  10   41.12    1.77
   5   1  10   40.81    1.53
   5   1  10   44.65    1.64
   5   1  10   43.20    1.52
   5   1  10   39.92    1.75
   5   1  11   93.51    2.66
   5   1  11   87.07    2.83
   5   1  11   90.79    2.26
   5   1  11   88.89    2.52
   5   1  11   84.53    2.59
   5   1  11   95.25    2.12
   5   1  11   95.56    2.68
   5   1  11   89.57    2.35
   5   1  11   96.07    2.44
   5   1  11   94.83    2.22
   5   1  11   89.86    2.50
   5   1  12    1.29    0.73
   5   1  12    1.78    1.17
   5   1  12    1.24    0.72
   5   1  12    1.19    0.93
   5   1  12   -0.18    1.05
   5   1  12    1.19    0.74
   5   1  12    2.21    0.96
   5   1  12    2.12    0.92
   5   1  12    1.18    0.86
   5   1  12    1.36    1.05
   5   1  13   69.31    2.09
   5   1  13   64.01    1.56
   5   1  13   55.92    2.15
   5   1  13   68.15    1.88
   5   1  13   65.20    2.18
   5   1  13   59.29    2.14
   5   1  13   68.10    2.08
   5   1  13   70.22    2.01
   5   1  13   67.41    1.99
   5   1  13   59.84    1.57
   5   1  13   64.88    2.01
   5   1  14   56.67    2.00
   5   1  14   56.11    1.93
   5   1  14   56.19    1.42
   5   1  14   61.88    1.84
   5   1  15   24.41    1.09
   5   1  15   24.31    0.93
   5   1  15   23.90    1.30
   5   1  15   24.03    1.26
   5   1  15   25.51    1.20
   5   1  15   25.67    1.23
   5   1  15   26.04    1.10
   5   1  16   30.59    1.29
   5   1  16   33.69    1.25
   5   1  16   30.67    1.03
   5   1  16   33.21    1.18
   5   1  17   31.68    1.09
   5   1  18    2.17    0.34
   5   2 -12    4.87    0.64
   5   2 -12    4.48    0.52
   5   2 -11   23.97    1.13
   5   2 -10    2.70    0.82
   5   2  -9   70.23    2.10
   5   2  -8   50.22    1.90
   5   2  -8   50.26    1.51
   5   2  -7  115.05    2.99
   5   2  -7  116.58    2.53
   5   2  -6    1.71    1.08
   5   2  -6    2.00    0.83
   5   2  -5   23.22    1.40
   5   2  -5   20.50    1.02
   5   2  -5   22.23    1.01
   5   2  -4   34.97    1.22
   5   2  -4   33.24    1.26
   5   2  -4   32.78    1.55
   5   2  -4   30.83    2.03
   5   2  -3   13.95    0.87
   5   2  -3   12.70    0.89
   5   2  -3   15.51    1.65
   5   2  -3   14.80    0.70
   5   2  -3   12.58    0.77
   5   2  -3   13.04    1.14
   5   2  -2   69.17    1.95
   5   2  -2   71.13    1.85
   5   2  -2   73.57    1.83
   5   2  -2   71.03    1.74
   5   2  -2   67.21    1.65
   5   2  -2   67.46    2.98
   5   2  -2   66.50    1.52
   5   2  -2   62.76    1.67
   5   2  -1   34.55    2.23
   5   2  -1   33.49    1.04
   5   2  -1   35.44    1.21
   5   2  -1   31.84    0.95
   5   2  -1   33.53    1.34
   5   2  -1   32.10    1.21
   5   2  -1   32.21    1.22
   5   2  -1   32.37    1.15
   5   2  -1   33.28    1.07
   5   2  -1   32.86    1.23
   5   2   0   21.74    1.90
   5   2   0   20.77    0.85
   5   2   0   21.17    0.98
   5   2   0   19.82    0.80
   5   2   0   21.69    1.14
   5   2   0   21.45    1.04
   5   2   0   20.72    0.97
   5   2   0   21.35    0.96
   5   2   0   19.53    0.82
   5   2   0   21.07    1.01
   5   2   1  110.06    3.84
   5   2   1  100.88    2.04
   5   2   1  109.01    2.26
   5   2   1   98.44    2.01
   5   2   1  106.88    2.31
   5   2   1  108.21    2.28
   5   2   1  101.46    2.14
   5   2   1   97.02    1.98
   5   2   1  103.00    2.14
   5   2   1  102.51    2.14
   5   2   2  422.45    6.27
   5   2   2  420.35    8.54
   5   2   2  395.24    6.02
   5   2   2  428.21    6.28
   5   2   2  386.21    6.20
   5   2   2  396.73    6.20
   5   2   2  404.97    6.04
   5   2   2  400.61    6.22
   5   2   2  384.09    6.19
   5   2   2  399.99    6.11
   5   2   2  384.71    6.01
   5   2   2  402.00    6.38
   5   2   2  363.62    5.87
   5   2   3    5.63    0.45
   5   2   3    7.08    0.65
   5   2   3    6.96    1.40
   5   2   3    6.35    0.70
   5   2   3    5.64    0.78
   5   2   3    6.04    0.70
   5   2   3    5.63    0.90
   5   2   3    5.27    0.64
   5   2   3    4.75    0.82
   5   2   3    6.13    0.62
   5   2   3    5.75    0.62
   5   2   3    5.00    0.64
   5   2   3    4.75    0.62
   5   2   3    5.63    0.84
   5   2   3    4.78    0.85
   5   2   4  249.22    6.03
   5   2   4  219.51    3.75
   5   2   4  237.46    3.95
   5   2   4  238.92    3.92
   5   2   4  234.65    3.92
   5   2   4  232.14    3.95
   5   2   4  224.54    3.98
   5   2   4  219.44    4.02
   5   2   4  230.32    4.00
   5   2   4  229.85    3.83
   5   2   4  224.03    3.86
   5   2   4  233.01    4.02
   5   2   4  214.14    3.64
   5   2   4  221.78    3.97
   5   2   4  231.42    4.00
   5   2   5   14.36    1.61
   5   2   5   14.65    0.76
   5   2   5   14.74    0.83
   5   2   5   13.64    0.81
   5   2   5   12.76    0.87
   5   2   5   13.75    0.84
   5   2   5   15.56    0.87
   5   2   5   13.76    1.05
   5   2   5   13.96    0.83
   5   2   5   15.42    0.84
   5   2   5   14.96    0.83
   5   2   5   13.63    0.87
   5   2   5   14.59    0.94
   5   2   5   13.90    0.80
   5   2   5   13.65    0.93
   5   2   5   14.12    1.12
   5   2   6  518.80   10.00
   5   2   6  486.04    7.48
   5   2   6  507.75    7.66
   5   2   6  541.81    7.75
   5   2   6  491.08    7.59
   5   2   6  519.21    7.62
   5   2   6  522.44    7.65
   5   2   6  498.90    7.64
   5   2   6  497.86    7.80
   5   2   6  505.29    7.64
   5   2   6  527.39    7.91
   5   2   6  478.24    7.85
   5   2   6  544.68    7.79
   5   2   6  495.30    7.54
   5   2   6  500.31    7.50
   5   2   6  511.48    7.93
   5   2   6  497.61    7.61
   5   2   6  501.89    7.67
   5   2   7   17.20    1.66
   5   2   7   15.71    0.76
   5   2   7   15.96    0.83
   5   2   7   13.79    0.86
   5   2   7   14.50    0.81
   5   2   7   14.66    0.88
   5   2   7   15.81    0.80
   5   2   7   14.44    1.12
   5   2   7   15.71    0.86
   5   2   7   14.55    0.94
   5   2   7   12.61    0.93
   5   2   7   15.67    0.94
   5   2   7   13.82    1.03
   5   2   7   13.52    0.87
   5   2   7   12.19    0.87
   5   2   7   13.99    0.83
   5   2   7   13.22    1.00
   5   2   7   14.78    1.25
   5   2   8  119.41    3.91
   5   2   8  111.12    2.20
   5   2   8  113.93    2.32
   5   2   8  122.31    2.46
   5   2   8  122.52    2.35
   5   2   8  124.55    2.74
   5   2   8  114.95    2.55
   5   2   8  117.61    2.42
   5   2   8  111.04    2.32
   5   2   8  122.61    2.75
   5   2   8  114.02    2.71
   5   2   8  129.04    2.49
   5   2   8  117.25    2.75
   5   2   8  120.49    2.48
   5   2   8  111.61    2.52
   5   2   8  116.08    2.34
   5   2   8  120.04    2.66
   5   2   8  114.52    2.83
   5   2   9   28.16    1.05
   5   2   9   26.49    1.15
   5   2   9   26.02    1.08
   5   2   9   28.80    1.37
   5   2   9   25.14    1.02
   5   2   9   28.54    1.32
   5   2   9   31.25    1.16
   5   2   9   24.22    1.37
   5   2   9   28.50    1.22
   5   2   9   27.81    1.36
   5   2   9   26.89    1.26
   5   2   9   28.67    1.39
   5   2   9   26.60    1.55
   5   2  10  127.05    2.80
   5   2  10  118.28    2.47
   5   2  10  132.65    2.59
   5   2  10  122.65    3.00
   5   2  10  126.23    2.70
   5   2  10  124.77    2.97
   5   2  10  121.06    2.79
   5   2  10  132.86    2.92
   5   2  10  132.55    2.83
   5   2  10  116.36    2.65
   5   2  10  124.34    2.56
   5   2  10  125.99    2.96
   5   2  11   81.12    2.31
   5   2  11   76.17    2.11
   5   2  11   78.09    2.28
   5   2  11   76.90    2.20
   5   2  11   84.80    2.31
   5   2  11   76.00    2.37
   5   2  11   82.53    2.12
   5   2  11   82.90    1.95
   5   2  12  454.22    7.43
   5   2  12  483.66    7.26
   5   2  12  475.92    7.74
   5   2  12  454.62    7.58
   5   2  12  494.40    7.66
   5   2  12  467.74    7.69
   5   2  12  481.31    7.30
   5   2  13   13.87    1.01
   5   2  13   14.42    0.85
   5   2  13   13.81    0.99
   5   2  13   11.70    1.22
   5   2  13   14.40    1.06
   5   2  13   15.21    1.16
   5   2  13   15.24    1.20
   5   2  13   11.96    0.86
   5   2  13   15.58    1.33
   5   2  14  109.34    2.92
   5   2  14  106.92    2.81
   5   2  14  118.32    2.28
   5   2  14  114.06    2.53
   5   2  14  126.55    2.73
   5   2  14  123.42    2.68
   5   2  15   58.24    1.85
   5   2  15   64.86    1.80
   5   2  15   62.26    1.84
   5   2  15   63.37    1.67
   5   2  16   27.17    1.26
   5   2  16   30.38    1.03
   5   2  16   29.30    1.14
   5   2  16   29.44    1.20
   5   2  17   35.70    1.18
   5   2  18    8.29    0.50
   5   2  18   10.09    0.53
   5   3 -12   44.46    1.26
   5   3 -12   44.09    1.16
   5   3 -11    5.19    0.81
   5   3 -10   27.17    1.34
   5   3  -9   18.24    1.29
   5   3  -8   45.56    1.36
   5   3  -8   49.10    1.95
   5   3  -7   30.54    1.21
   5   3  -6  256.21    4.49
   5   3  -6  280.76    5.43
   5   3  -5   29.92    1.27
   5   3  -5   30.43    1.69
   5   3  -4   67.52    2.20
   5   3  -4   63.93    1.67
   5   3  -4   66.21    1.70
   5   3  -4   70.26    1.76
   5   3  -4   68.89    1.83
   5   3  -3  129.34    4.26
   5   3  -3  129.89    2.40
   5   3  -3  135.25    2.66
   5   3  -3  132.86    3.06
   5   3  -3  137.19    2.70
   5   3  -3  140.36    2.70
   5   3  -3  139.10    2.71
   5   3  -3  140.35    2.77
   5   3  -2   32.98    2.19
   5   3  -2   31.70    0.98
   5   3  -2   30.01    1.14
   5   3  -2   30.05    1.41
   5   3  -2   30.27    1.17
   5   3  -2   30.08    1.13
   5   3  -2   33.34    1.14
   5   3  -2   31.39    1.22
   5   3  -1  120.00    4.10
   5   3  -1  111.66    2.16
   5   3  -1  113.01    2.42
   5   3  -1  115.60    2.62
   5   3  -1  119.89    2.42
   5   3  -1  115.67    2.35
   5   3  -1  110.70    2.30
   5   3  -1  115.75    2.37
   5   3   0    3.07    1.23
   5   3   0    2.71    0.51
   5   3   0    2.73    0.65
   5   3   0    2.49    0.46
   5   3   0    2.58    0.79
   5   3   0    1.94    0.56
   5   3   0    2.26    0.63
   5   3   0    1.99    0.59
   5   3   0    2.60    0.52
   5   3   0    3.30    0.72
   5   3   1   37.70    2.39
   5   3   1   37.43    1.10
   5   3   1   38.85    1.30
   5   3   1   42.42    1.30
   5   3   1   37.34    1.45
   5   3   1   35.69    1.07
   5   3   1   40.26    1.41
   5   3   1   39.38    1.22
   5   3   1   35.36    1.08
   5   3   1   36.96    1.21
   5   3   2  136.51    4.43
   5   3   2  136.42    2.46
   5   3   2  140.44    2.73
   5   3   2  135.78    2.62
   5   3   2  132.40    2.73
   5   3   2  128.34    2.58
   5   3   2  131.78    2.45
   5   3   2  134.14    2.70
   5   3   2  131.41    2.54
   5   3   2  128.48    2.41
   5   3   2  128.20    2.48
   5   3   2  133.52    2.78
   5   3   3  175.05    3.09
   5   3   3  185.91    3.21
   5   3   3  174.55    5.03
   5   3   3  161.58    2.88
   5   3   3  172.82    3.15
   5   3   3  172.52    3.11
   5   3   3  161.51    3.04
   5   3   3  163.95    2.92
   5   3   3  165.81    3.08
   5   3   3  163.23    2.89
   5   3   3  156.79    3.12
   5   3   3  148.18    2.76
   5   3   4  138.86    2.60
   5   3   4  171.80    4.95
   5   3   4  159.07    2.80
   5   3   4  162.89    3.03
   5   3   4  162.70    2.93
   5   3   4  157.76    2.96
   5   3   4  158.51    2.98
   5   3   4  157.86    2.95
   5   3   4  162.59    2.86
   5   3   4  158.90    2.97
   5   3   4  148.40    2.94
   5   3   4  162.42    3.08
   5   3   4  162.73    3.03
   5   3   5  525.59    7.92
   5   3   5  541.38    7.97
   5   3   5  554.11    8.06
   5   3   5  524.35    8.00
   5   3   5  515.06    8.01
   5   3   5  528.51    7.89
   5   3   5  528.46    8.06
   5   3   5  562.06    8.18
   5   3   5  507.71    7.96
   5   3   5  525.77    8.16
   5   3   5  534.75   10.49
   5   3   5  518.05    7.78
   5   3   5  528.10    8.04
   5   3   6   55.19    1.44
   5   3   6   59.89    2.93
   5   3   6   60.24    1.47
   5   3   6   61.66    1.64
   5   3   6   68.24    1.74
   5   3   6   63.63    1.57
   5   3   6   66.88    1.65
   5   3   6   68.63    1.68
   5   3   6   58.99    1.56
   5   3   6   59.51    1.62
   5   3   6   60.99    1.56
   5   3   6   58.74    1.65
   5   3   6   71.03    1.81
   5   3   6   61.36    1.62
   5   3   6   63.31    1.60
   5   3   6   64.14    1.94
   5   3   6   58.26    1.62
   5   3   7  707.74   10.12
   5   3   7  721.34   10.06
   5   3   7  659.03   10.13
   5   3   7  675.75   10.41
   5   3   7  670.36   10.01
   5   3   7  681.44    9.99
   5   3   7  671.08   10.26
   5   3   7  723.80   10.19
   5   3   7  686.05   10.09
   5   3   7  682.17    9.98
   5   3   7  687.53   12.58
   5   3   7  653.75    9.81
   5   3   7  685.29   10.08
   5   3   8   16.31    0.95
   5   3   8   17.07    0.90
   5   3   8   17.43    1.23
   5   3   8   17.22    0.89
   5   3   8   17.62    0.92
   5   3   8   17.08    0.83
   5   3   8   16.85    0.99
   5   3   8   19.23    1.02
   5   3   8   16.68    1.03
   5   3   8   17.13    0.95
   5   3   8   16.92    1.68
   5   3   8   16.75    0.77
   5   3   8   17.79    0.88
   5   3   9  187.64    3.23
   5   3   9  191.41    3.64
   5   3   9  162.87    3.28
   5   3   9  165.09    3.13
   5   3   9  177.26    3.53
   5   3   9  186.94    3.32
   5   3   9  173.78    3.53
   5   3   9  180.61    3.41
   5   3   9  175.35    3.23
   5   3   9  180.42    3.60
   5   3   9  152.92    4.67
   5   3  10   26.44    1.07
   5   3  10   27.05    1.15
   5   3  10   24.31    1.64
   5   3  10   27.14    1.31
   5   3  10   25.62    1.28
   5   3  10   25.46    1.34
   5   3  10   26.21    1.45
   5   3  10   23.99    1.03
   5   3  10   25.75    1.23
   5   3  10   26.66    1.40
   5   3  11  538.19    8.08
   5   3  11  495.82    8.13
   5   3  11  492.67    8.06
   5   3  11  510.66    7.99
   5   3  11  499.48    8.13
   5   3  11  497.18    8.17
   5   3  11  530.30    8.25
   5   3  11  497.26    8.33
   5   3  11  515.66    7.78
   5   3  12    6.61    0.90
   5   3  12    6.30    0.85
   5   3  12    5.47    1.05
   5   3  12    7.59    1.15
   5   3  12    6.14    0.91
   5   3  12    6.65    1.31
   5   3  12    7.19    0.86
   5   3  13  160.80    2.90
   5   3  13  150.05    3.13
   5   3  13  160.02    3.41
   5   3  13  167.12    3.40
   5   3  13  155.46    3.52
   5   3  13  144.23    2.92
   5   3  13  153.81    3.03
   5   3  14    3.08    0.93
   5   3  14    3.96    0.71
   5   3  14    4.51    0.65
   5   3  14    2.57    0.93
   5   3  15  128.07    2.71
   5   3  15  124.34    2.77
   5   3  16   37.91    1.12
   5   3  16   35.39    1.39
   5   3  16   39.11    1.24
   5   3  16   34.85    1.25
   5   3  16   35.85    1.32
   5   3  17   20.40    0.85
   5   3  17   21.11    0.97
   5   3  18    0.55    0.36
   5   3  18    0.54    0.35
   5   4 -12    7.32    0.65
   5   4 -11   35.29    1.32
   5   4 -10   17.95    1.19
   5   4  -9  129.33    3.07
   5   4  -8    9.10    1.29
   5   4  -8    9.44    0.73
   5   4  -7   98.79    2.13
   5   4  -6    2.67    1.80
   5   4  -6    3.29    0.76
   5   4  -5  174.63    4.29
   5   4  -5  175.65    3.27
   5   4  -4   64.12    1.71
   5   4  -4   60.66    1.67
   5   4  -4   60.35    2.17
   5   4  -3  172.29    5.05
   5   4  -3  168.71    3.23
   5   4  -3  177.13    3.70
   5   4  -3  169.80    3.15
   5   4  -3  179.17    3.25
   5   4  -3  187.52    3.35
   5   4  -3  183.27    3.30
   5   4  -2   77.41    3.34
   5   4  -2   75.78    1.90
   5   4  -2   78.40    2.20
   5   4  -2   78.08    1.83
   5   4  -2   78.05    1.87
   5   4  -2   80.52    1.90
   5   4  -2   82.01    1.91
   5   4  -1   89.01    3.64
   5   4  -1   85.32    1.80
   5   4  -1   90.13    2.11
   5   4  -1   87.30    2.23
   5   4  -1   90.68    1.99
   5   4  -1   87.38    1.98
   5   4  -1   90.04    2.00
   5   4  -1   90.63    2.01
   5   4   0    3.06    1.29
   5   4   0    2.56    0.52
   5   4   0    2.67    0.69
   5   4   0    3.23    0.82
   5   4   0    3.81    0.63
   5   4   0    3.50    0.63
   5   4   0    3.12    0.55
   5   4   0    3.37    0.72
   5   4   1  275.50    4.78
   5   4   1  287.15    4.55
   5   4   1  294.60    4.92
   5   4   1  299.37    7.17
   5   4   1  301.46    4.76
   5   4   1  297.66    4.88
   5   4   1  284.54    4.88
   5   4   1  297.44    4.72
   5   4   1  279.76    4.66
   5   4   1  292.82    4.66
   5   4   2  193.73    3.60
   5   4   2  197.33    3.33
   5   4   2  202.53    5.71
   5   4   2  215.96    3.55
   5   4   2  217.08    3.72
   5   4   2  196.54    3.57
   5   4   2  194.67    3.58
   5   4   2  205.88    3.47
   5   4   2  184.88    3.35
   5   4   2  198.86    3.40
   5   4   2  184.08    3.62
   5   4   3  175.63    3.22
   5   4   3  176.58    2.97
   5   4   3  168.82    5.15
   5   4   3  173.83    3.10
   5   4   3  179.81    3.23
   5   4   3  163.87    3.06
   5   4   3  168.42    2.97
   5   4   3  175.07    3.17
   5   4   3  170.98    3.02
   5   4   3  157.70    3.00
   5   4   3  159.50    3.18
   5   4   3  163.47    2.92
   5   4   4  265.27    4.53
   5   4   4  295.28    4.89
   5   4   4  301.63    4.65
   5   4   4  300.33    7.21
   5   4   4  307.27    4.81
   5   4   4  317.25    4.91
   5   4   4  296.36    4.81
   5   4   4  298.79    4.81
   5   4   4  297.30    4.70
   5   4   4  293.79    4.82
   5   4   4  287.30    4.68
   5   4   4  293.70    4.83
   5   4   4  310.69    4.97
   5   4   4  295.91    4.87
   5   4   4  281.48    4.68
   5   4   5  145.29    2.58
   5   4   5  150.12    2.89
   5   4   5  155.46    4.84
   5   4   5  136.38    2.66
   5   4   5  143.55    2.75
   5   4   5  141.94    2.86
   5   4   5  141.22    2.65
   5   4   5  138.27    2.70
   5   4   5  137.78    2.70
   5   4   5  143.68    2.75
   5   4   5  128.57    2.66
   5   4   5  137.43    2.72
   5   4   5  137.96    2.66
   5   4   6  197.16    3.62
   5   4   6  217.84    5.89
   5   4   6  199.48    3.48
   5   4   6  211.59    3.81
   5   4   6  219.63    3.85
   5   4   6  217.24    3.71
   5   4   6  231.82    3.82
   5   4   6  203.92    3.64
   5   4   6  204.36    3.67
   5   4   6  209.38    3.73
   5   4   6  226.60    3.93
   5   4   6  221.64    3.72
   5   4   6  197.84    3.63
   5   4   7   26.04    2.10
   5   4   7   24.13    0.90
   5   4   7   25.31    1.09
   5   4   7   27.31    1.16
   5   4   7   28.14    1.11
   5   4   7   24.98    1.06
   5   4   7   24.23    0.96
   5   4   7   24.34    0.99
   5   4   7   28.59    1.22
   5   4   7   25.41    1.20
   5   4   7   27.43    1.15
   5   4   7   23.25    0.99
   5   4   8  257.74    6.53
   5   4   8  258.21    4.44
   5   4   8  272.70    4.51
   5   4   8  286.81    4.46
   5   4   8  249.40    4.38
   5   4   8  246.24    4.26
   5   4   8  257.24    4.53
   5   4   8  281.97    4.59
   5   4   8  274.14    4.60
   5   4   8  272.41    4.44
   5   4   8  236.56    4.36
   5   4   9   21.65    1.02
   5   4   9   22.48    1.42
   5   4   9   20.54    0.88
   5   4   9   19.99    1.01
   5   4   9   21.55    1.10
   5   4   9   21.24    1.21
   5   4   9   21.72    1.10
   5   4   9   19.45    1.80
   5   4  10  585.48    8.38
   5   4  10  587.50    8.86
   5   4  10  575.26    8.58
   5   4  10  577.08    8.34
   5   4  11   55.73    1.63
   5   4  11   55.00    1.84
   5   4  11   55.03    1.80
   5   4  11   55.48    2.00
   5   4  11   57.18    1.88
   5   4  12  264.87    4.58
   5   4  12  246.88    4.60
   5   4  12  259.58    4.63
   5   4  12  253.97    4.82
   5   4  12  259.86    4.81
   5   4  12  246.66    5.02
   5   4  12  252.48    4.39
   5   4  13   27.77    1.09
   5   4  13   24.18    1.19
   5   4  13   25.54    1.42
   5   4  13   27.44    1.45
   5   4  13   24.98    1.61
   5   4  13   23.80    1.14
   5   4  13   26.11    1.15
   5   4  14  104.68    2.55
   5   4  14   98.85    2.32
   5   4  15   21.67    1.23
   5   4  15   22.49    1.20
   5   4  15   21.23    1.27
   5   4  16   95.56    1.91
   5   4  16   82.34    2.18
   5   4  16  102.76    2.09
   5   4  16   88.83    2.03
   5   4  16   90.05    2.11
   5   4  17   16.96    0.91
   5   4  17   20.23    0.73
   5   4  17   18.04    0.83
   5   4  17   18.48    0.88
   5   4  18   14.50    0.64
   5   4  18   14.98    0.60
   5   5 -12   16.52    0.76
   5   5 -11    2.82    0.72
   5   5 -10   47.26    1.66
   5   5  -9    0.59    0.95
   5   5  -8   64.79    2.30
   5   5  -7    0.50    0.57
   5   5  -7    0.02    1.35
   5   5  -6  221.52    3.79
   5   5  -5   16.52    0.96
   5   5  -5   17.08    1.76
   5   5  -4   69.23    1.81
   5   5  -4   67.94    1.75
   5   5  -4   68.60    2.34
   5   5  -3   13.81    0.93
   5   5  -3   12.17    0.85
   5   5  -3   11.10    1.60
   5   5  -3   10.23    0.80
   5   5  -3   12.34    1.19
   5   5  -2  191.20    5.60
   5   5  -2  190.98    3.59
   5   5  -2  186.92    3.35
   5   5  -2  199.44    3.58
   5   5  -2  200.10    3.47
   5   5  -2  193.27    3.83
   5   5  -1   18.95    1.04
   5   5  -1   20.44    2.05
   5   5  -1   21.30    1.24
   5   5  -1   20.30    0.98
   5   5  -1   22.22    1.04
   5   5   0  296.19    5.00
   5   5   0  309.63    7.51
   5   5   0  308.96    4.82
   5   5   0  298.54    5.02
   5   5   0  304.86    5.12
   5   5   0  298.48    4.83
   5   5   0  298.99    4.90
   5   5   0  307.84    4.83
   5   5   1  111.18    2.48
   5   5   1  104.77    2.10
   5   5   1  106.67    4.15
   5   5   1  115.73    2.28
   5   5   1  120.42    2.53
   5   5   1  111.32    2.45
   5   5   1  110.94    2.46
   5   5   1  111.38    2.28
   5   5   1  106.72    2.27
   5   5   1  113.88    2.27
   5   5   1  105.57    2.50
   5   5   2   67.39    1.87
   5   5   2   64.66    1.49
   5   5   2   66.92    3.31
   5   5   2   65.14    1.62
   5   5   2   71.32    1.83
   5   5   2   65.88    1.78
   5   5   2   64.83    1.74
   5   5   2   65.38    1.61
   5   5   2   63.88    1.58
   5   5   2   60.33    1.75
   5   5   2   62.39    1.76
   5   5   3   11.64    0.89
   5   5   3   10.18    0.76
   5   5   3    9.43    0.98
   5   5   3   10.32    1.07
   5   5   3    9.96    0.68
   5   5   3   10.08    1.72
   5   5   3    9.67    0.91
   5   5   3    9.25    1.10
   5   5   3   10.52    0.87
   5   5   4  201.22    3.48
   5   5   4  203.22    3.63
   5   5   4  190.66    3.35
   5   5   4  182.52    3.38
   5   5   4  179.50    3.35
   5   5   4  185.35    3.51
   5   5   4  176.02    3.35
   5   5   4  194.85    3.56
   5   5   4  188.14    3.20
   5   5   4  194.23    5.69
   5   5   5  120.49    2.57
   5   5   5  117.30    2.46
   5   5   5  130.83    2.58
   5   5   5  134.76    2.71
   5   5   5  124.74    2.46
   5   5   5  124.40    2.53
   5   5   5  128.83    2.71
   5   5   5  129.82    4.59
   5   5   5  124.06    2.55
   5   5   6   21.49    1.12
   5   5   6   22.57    1.09
   5   5   6   19.94    0.89
   5   5   6   20.27    0.90
   5   5   6   20.83    1.20
   5   5   6   21.84    1.00
   5   5   6   23.04    1.19
   5   5   6   21.54    2.07
   5   5   7  258.97    4.47
   5   5   7  255.02    6.70
   5   5   7  268.61    4.47
   5   5   7  273.05    4.41
   5   5   7  244.94    4.17
   5   5   7  234.26    4.18
   5   5   7  265.71    4.52
   5   5   7  262.54    4.38
   5   5   7  239.83    4.36
   5   5   8   39.81    2.56
   5   5   8   39.06    1.35
   5   5   8   38.70    1.39
   5   5   8   39.00    1.32
   5   5   8   35.36    1.12
   5   5   8   40.62    1.45
   5   5   8   38.32    1.49
   5   5   8   40.40    1.40
   5   5   8   39.59    1.38
   5   5   9  223.88    4.21
   5   5   9  252.54    4.05
   5   5   9  202.73    3.78
   5   5   9  244.62    4.14
   5   5   9  246.42    4.30
   5   5   9  244.88    4.08
   5   5   9  209.34    5.89
   5   5   9  210.99    3.95
   5   5  10    0.33    0.67
   5   5  10   -0.31    0.76
   5   5  10    0.77    0.73
   5   5  10    0.70    1.01
   5   5  10    0.28    0.89
   5   5  10    0.16    0.82
   5   5  11  106.43    2.35
   5   5  11  106.07    2.58
   5   5  11  108.75    2.72
   5   5  12   17.96    1.03
   5   5  12   18.70    1.15
   5   5  12   19.10    1.26
   5   5  12   19.78    1.43
   5   5  12   18.09    1.22
   5   5  13   82.82    2.00
   5   5  13   92.44    1.99
   5   5  13   83.50    2.15
   5   5  13   79.30    2.06
   5   5  13   88.66    2.43
   5   5  13   90.67    2.42
   5   5  14    2.34    0.63
   5   5  14    1.32    0.63
   5   5  15   83.80    1.73
   5   5  15   70.24    1.77
   5   5  15   75.68    2.06
   5   5  15   75.12    2.01
   5   5  15   88.03    2.23
   5   5  15   65.78    2.05
   5   5  16    1.05    0.58
   5   5  16    0.17    0.67
   5   5  16    0.40    0.77
   5   5  16    0.09    0.69
   5   5  16    0.29    0.66
   5   5  17   56.97    1.52
   5   5  17   59.79    1.41
   5   5  18    0.46    0.33
   5   6 -11   31.11    1.14
   5   6 -10   19.35    1.15
   5   6  -9   74.94    2.17
   5   6  -8   10.10    1.24
   5   6  -7   53.50    2.25
   5   6  -5  193.31    3.65
   5   6  -5  212.05    4.53
   5   6  -4   16.85    1.37
   5   6  -4   17.53    0.96
   5   6  -3   41.21    1.70
   5   6  -3   41.36    1.32
   5   6  -3   40.49    1.38
   5   6  -3   36.19    2.44
   5   6  -3   34.70    1.28
   5   6  -2    6.09    1.48
   5   6  -2    6.33    0.78
   5   6  -2    8.37    0.62
   5   6  -2    7.15    1.04
   5   6  -2    7.19    0.76
   5   6  -2    8.32    0.83
   5   6  -1   94.48    2.29
   5   6  -1   90.98    3.93
   5   6  -1   99.20    2.34
   5   6  -1   95.20    2.01
   5   6  -1   97.39    2.35
   5   6  -1   98.52    2.41
   5   6  -1  103.37    2.27
   5   6  -1  102.23    2.16
   5   6   0   18.89    1.20
   5   6   0   18.42    2.06
   5   6   0   21.36    1.14
   5   6   0   21.24    0.89
   5   6   0   18.93    1.21
   5   6   0   18.49    1.10
   5   6   0   19.11    0.96
   5   6   0   19.63    1.37
   5   6   1  202.31    3.65
   5   6   1  198.19    3.40
   5   6   1  195.83    3.56
   5   6   1  198.74    3.65
   5   6   1  204.84    3.73
   5   6   1  211.07    6.12
   5   6   1  186.89    3.57
   5   6   1  178.04    3.58
   5   6   2  130.70    2.59
   5   6   2  124.16    2.40
   5   6   2  119.02    2.50
   5   6   2  112.22    2.49
   5   6   2  116.85    2.58
   5   6   2  114.10    2.51
   5   6   2  125.70    2.72
   5   6   2  119.10    4.57
   5   6   3   63.69    1.73
   5   6   3   73.17    1.79
   5   6   3   72.17    1.98
   5   6   3   66.49    3.45
   5   6   3   61.38    1.87
   5   6   3   58.84    1.66
   5   6   4   33.53    1.23
   5   6   4   31.96    1.32
   5   6   4   31.00    1.45
   5   6   4   26.55    1.08
   5   6   4   32.14    1.41
   5   6   4   33.77    2.60
   5   6   5   68.41    1.94
   5   6   5   63.10    1.65
   5   6   5   73.71    1.82
   5   6   5   76.39    1.95
   5   6   5   67.65    1.72
   5   6   5   73.25    1.87
   5   6   5   76.10    2.02
   5   6   5   74.76    3.59
   5   6   6  172.42    3.30
   5   6   6  170.52    5.45
   5   6   6  165.50    3.26
   5   6   6  175.25    3.23
   5   6   6  149.69    2.93
   5   6   6  167.96    3.38
   5   6   6  153.81    3.14
   5   6   6  162.74    3.21
   5   6   7   52.85    1.67
   5   6   7   50.46    3.01
   5   6   7   47.52    1.57
   5   6   7   49.18    1.51
   5   6   7   45.87    1.28
   5   6   7   50.85    1.67
   5   6   7   48.97    1.59
   5   6   7   49.85    1.59
   5   6   8  223.07    3.94
   5   6   8  196.85    3.86
   5   6   8  198.94    5.97
   5   6   8  225.60    3.83
   5   6   8  215.69    3.88
   5   6   8  215.94    3.95
   5   6   8  213.55    3.86
   5   6   8  196.95    3.97
   5   6   9  112.68    2.75
   5   6   9  120.37    2.44
   5   6   9  115.86    2.70
   5   6   9  115.03    2.50
   5   6   9   98.05    4.01
   5   6   9   98.64    2.37
   5   6   9  112.15    2.52
   5   6  10   27.51    1.24
   5   6  10   30.06    1.50
   5   6  10   29.75    1.33
   5   6  10   31.78    1.25
   5   6  11   38.30    1.38
   5   6  11   40.55    1.64
   5   6  11   42.32    1.77
   5   6  12   95.01    2.42
   5   6  12   90.79    2.35
   5   6  12   91.23    2.13
   5   6  12   98.52    2.41
   5   6  12   88.65    2.50
   5   6  13    1.22    0.67
   5   6  13    1.57    0.99
   5   6  13    2.12    0.89
   5   6  13    2.31    0.91
   5   6  13    2.31    0.79
   5   6  13    3.08    0.69
   5   6  13    1.55    0.69
   5   6  14  136.07    2.55
   5   6  15    0.06    0.56
   5   6  15    0.32    0.50
   5   6  15   -0.19    0.99
   5   6  15    0.54    0.77
   5   6  15    0.50    0.78
   5   6  16   87.02    1.73
   5   6  16   73.12    1.81
   5   6  16   73.18    1.88
   5   6  16   89.07    2.00
   5   6  17    1.97    0.57
   5   6  17    1.78    0.52
   5   6  17    2.16    0.55
   5   7 -11    1.60    0.52
   5   7 -10   33.65    1.27
   5   7  -9    0.31    0.82
   5   7  -8    5.90    1.01
   5   7  -7    4.73    1.13
   5   7  -6   12.60    1.30
   5   7  -6   11.50    0.79
   5   7  -5   16.66    0.95
   5   7  -4  148.89    3.32
   5   7  -4  146.25    2.91
   5   7  -3    3.02    0.98
   5   7  -3    3.26    0.98
   5   7  -3    3.62    1.27
   5   7  -3    3.84    0.69
   5   7  -3    3.44    0.78
   5   7  -2  121.34    2.63
   5   7  -2  125.35    2.87
   5   7  -2  117.12    2.63
   5   7  -2  116.66    4.55
   5   7  -2  129.89    2.70
   5   7  -2  115.01    2.60
   5   7  -1   22.96    1.25
   5   7  -1   23.20    1.24
   5   7  -1   21.39    1.24
   5   7  -1   24.66    2.32
   5   7  -1   24.08    1.13
   5   7  -1   25.23    1.17
   5   7   0  241.66    4.13
   5   7   0  226.97    4.19
   5   7   0  218.32    3.99
   5   7   0  218.67    4.14
   5   7   0  241.73    4.18
   5   7   0  239.28    4.26
   5   7   0  243.94    6.89
   5   7   1    4.19    0.90
   5   7   1    4.02    0.77
   5   7   1    5.07    1.32
   5   7   1    6.54    0.80
   5   7   1    4.28    1.03
   5   7   1    5.95    1.75
   5   7   2  101.51    2.26
   5   7   2  110.36    2.59
   5   7   2  108.64    2.34
   5   7   2  102.22    2.50
   5   7   3  104.42    2.56
   5   7   3  103.60    4.46
   5   7   3  102.02    2.25
   5   7   3   97.96    2.40
   5   7   4  107.16    2.55
   5   7   4  110.70    4.59
   5   7   4  100.80    2.24
   5   7   4  102.08    2.44
   5   7   4   97.25    2.42
   5   7   5  101.42    2.47
   5   7   5  106.84    2.43
   5   7   5  105.47    2.55
   5   7   5   99.64    4.38
   5   7   5   99.28    2.37
   5   7   5   99.32    2.43
   5   7   6   92.69    2.30
   5   7   6   96.51    2.25
   5   7   6   96.97    2.40
   5   7   6   91.95    4.13
   5   7   6   91.36    2.41
   5   7   6   88.19    2.30
   5   7   6   93.02    2.30
   5   7   7   88.35    2.29
   5   7   7   81.26    3.91
   5   7   7   89.99    2.11
   5   7   7   90.70    2.19
   5   7   7   86.57    2.30
   5   7   7   87.30    2.22
   5   7   7   80.97    2.21
   5   7   8   98.55    2.40
   5   7   8   91.63    4.04
   5   7   8  100.87    2.24
   5   7   8   94.00    2.24
   5   7   8   97.09    2.36
   5   7   8   96.64    2.32
   5   7   8   92.04    2.43
   5   7   9  139.63    2.98
   5   7   9  158.52    2.94
   5   7   9  149.23    3.01
   5   7   9  154.83    3.05
   5   7   9  129.42    2.92
   5   7   9  128.94    4.79
   5   7  10    4.80    1.05
   5   7  10    5.63    0.96
   5   7  10    4.45    0.76
   5   7  10    4.77    0.85
   5   7  11   10.95    0.92
   5   7  11   12.99    1.17
   5   7  11   13.56    1.05
   5   7  12    0.96    0.66
   5   7  12    1.46    0.87
   5   7  12    0.57    0.92
   5   7  12    0.53    0.90
   5   7  13   96.55    2.36
   5   7  13   95.92    2.52
   5   7  13  101.17    2.07
   5   7  13   90.93    2.24
   5   7  13   89.85    2.07
   5   7  14    8.61    1.04
   5   7  15   87.31    1.72
   5   7  15   70.46    1.72
   5   7  15   88.87    2.28
   5   7  15   76.22    2.04
   5   7  15   75.34    1.97
   5   7  16    1.58    0.54
   5   7  16    1.46    0.67
   5   7  16    1.12    0.65
   5   7  16    1.96    0.81
   5   7  17   42.50    1.11
   5   7  17   47.09    1.21
   5   8 -10   13.11    0.81
   5   8  -9   67.25    1.79
   5   8  -8    3.03    0.87
   5   8  -7   54.29    1.84
   5   8  -6   21.50    1.35
   5   8  -6   20.93    0.97
   5   8  -5   74.08    2.22
   5   8  -5   71.98    1.86
   5   8  -4    5.36    0.76
   5   8  -3   34.03    1.50
   5   8  -3   35.86    1.33
   5   8  -2    2.77    0.86
   5   8  -2    2.82    1.38
   5   8  -2    2.67    0.69
   5   8  -1    9.90    0.99
   5   8  -1    9.82    1.07
   5   8  -1    9.30    1.85
   5   8  -1   10.66    0.88
   5   8  -1    9.06    0.81
   5   8   0    5.71    0.85
   5   8   0    6.87    1.44
   5   8   0    7.50    0.78
   5   8   0    6.39    1.10
   5   8   0    6.23    1.79
   5   8   1  157.03    2.96
   5   8   1  169.69    3.42
   5   8   1  169.19    5.90
   5   8   1  163.01    3.04
   5   8   1  162.17    3.35
   5   8   2    3.29    1.13
   5   8   2    2.51    1.75
   5   8   2    5.01    0.72
   5   8   2    3.74    1.34
   5   8   3  117.10    2.82
   5   8   3  121.46    5.17
   5   8   3  113.07    2.38
   5   8   3  111.01    2.58
   5   8   3  106.43    2.64
   5   8   4   56.37    2.01
   5   8   4   58.53    3.70
   5   8   4   58.36    1.77
   5   8   4   56.67    1.97
   5   8   5   70.81    2.02
   5   8   5   77.15    1.98
   5   8   5   76.28    2.23
   5   8   5   69.33    3.90
   5   8   5   73.03    2.03
   5   8   5   71.33    2.15
   5   8   6   66.03    1.84
   5   8   6   65.07    1.77
   5   8   6   58.63    1.96
   5   8   6   59.09    3.58
   5   8   6   59.43    1.99
   5   8   6   61.16    2.03
   5   8   6   55.94    1.82
   5   8   7   90.01    2.36
   5   8   7   79.70    4.01
   5   8   7   88.03    2.09
   5   8   7   84.95    2.14
   5   8   7   84.99    2.31
   5   8   7   88.70    2.27
   5   8   7   85.38    2.31
   5   8   8   52.37    1.55
   5   8   8   48.58    1.57
   5   8   8   50.69    1.70
   5   8   8   53.35    1.76
   5   8   8   47.73    3.11
   5   8   9    2.20    0.85
   5   8   9    3.26    0.74
   5   8   9    3.78    1.00
   5   8   9    3.04    1.37
   5   8  10   64.15    1.80
   5   8  10   65.99    2.10
   5   8  10   69.87    1.94
   5   8  11    0.89    0.69
   5   8  11    1.23    0.96
   5   8  11    1.13    0.85
   5   8  11    0.71    0.95
   5   8  12   80.36    1.94
   5   8  12   80.60    2.31
   5   8  13    0.55    0.58
   5   8  13    0.80    0.62
   5   8  13    0.67    0.63
   5   8  14   62.14    1.74
   5   8  14   60.02    1.87
   5   8  14   61.88    1.86
   5   8  14   58.25    1.56
   5   8  15   18.27    0.79
   5   8  15   14.39    0.75
   5   8  15   15.23    1.05
   5   8  15   15.23    1.01
   5   8  15   19.49    1.26
   5   8  16   34.90    1.21
   5   8  16   34.62    1.15
   5   8  17    0.50    0.43
   5   8  17    0.47    0.38
   5   8  17    0.44    0.48
   5   9  -8   72.09    1.83
   5   9  -7    5.88    0.87
   5   9  -6   74.00    1.78
   5   9  -6   79.52    2.13
   5   9  -5   28.30    1.13
   5   9  -5   28.11    1.37
   5   9  -4   31.93    1.26
   5   9  -4   30.72    1.43
   5   9  -3   52.70    1.65
   5   9  -2  196.00    3.82
   5   9  -2  197.18    3.79
   5   9  -1   67.99    2.28
   5   9  -1   61.89    3.60
   5   9   0  166.95    3.55
   5   9   0  162.43    5.92
   5   9   1   37.68    1.90
   5   9   1   36.18    1.69
   5   9   1   35.18    3.07
   5   9   1   36.95    1.23
   5   9   2   61.93    2.11
   5   9   2   62.84    2.15
   5   9   2   64.19    4.01
   5   9   2   57.47    1.55
   5   9   2   56.49    1.81
   5   9   3    1.83    1.42
   5   9   3    1.97    1.30
   5   9   3    2.23    2.08
   5   9   3    1.03    0.77
   5   9   4  212.84    4.30
   5   9   4  210.31    7.47
   5   9   4  191.47    3.67
   5   9   4  181.08    3.70
   5   9   4  189.79    3.80
   5   9   5   48.39    1.62
   5   9   5   48.08    1.55
   5   9   5   48.15    1.97
   5   9   5   45.10    3.57
   5   9   5   46.81    1.64
   5   9   5   47.20    1.92
   5   9   6   23.40    1.10
   5   9   6   22.65    2.59
   5   9   6   22.30    1.36
   5   9   6   21.47    1.16
   5   9   6   21.89    1.64
   5   9   7   39.89    1.36
   5   9   7   39.50    1.40
   5   9   7   38.14    1.58
   5   9   7   43.50    1.68
   5   9   7   36.43    2.99
   5   9   8  211.39    6.69
   5   9   8  221.74    3.88
   5   9   8  198.41    3.83
   5   9   8  215.13    4.07
   5   9   8  238.18    4.17
   5   9   8  226.42    4.33
   5   9   9   28.87    1.18
   5   9   9   30.19    1.31
   5   9   9   30.95    1.45
   5   9   9   33.19    1.46
   5   9   9   33.07    1.50
   5   9  10  129.55    3.04
   5   9  10  132.87    2.84
   5   9  10  125.86    2.70
   5   9  11  217.52    4.18
   5   9  11  218.60    3.98
   5   9  12    1.42    0.58
   5   9  12    1.00    0.58
   5   9  12    1.17    0.90
   5   9  12    1.75    0.77
   5   9  13   63.17    1.58
   5   9  13   59.94    1.81
   5   9  14    9.43    0.91
   5   9  14    7.78    0.98
   5   9  14    7.11    0.71
   5   9  14    9.94    0.65
   5   9  14    8.01    0.67
   5   9  15   34.42    1.32
   5   9  15   34.39    1.28
   5   9  15   31.82    0.98
   5   9  16    0.96    0.70
   5   9  16    0.52    0.53
   5   9  16    0.55    0.55
   5   9  17   22.93    0.70
   5   9  17   18.50    0.65
   5  10  -6   23.25    0.90
   5  10  -5   88.93    2.00
   5  10  -4    1.61    0.62
   5  10  -3  218.02    4.01
   5  10  -2    1.06    0.90
   5  10  -2    1.33    1.32
   5  10  -2    1.70    1.49
   5  10  -2    0.78    0.67
   5  10  -1  362.87    6.12
   5  10  -1  342.52    9.05
   5  10  -1  362.15    6.15
   5  10  -1  362.84    6.07
   5  10   0   12.72    1.66
   5  10   0    9.61    1.23
   5  10   0    9.27    2.12
   5  10   1  193.39    3.79
   5  10   1  185.96    6.69
   5  10   2    0.17    1.49
   5  10   2    0.24    0.72
   5  10   2    0.46    2.01
   5  10   3   58.78    2.15
   5  10   3   54.36    1.67
   5  10   4   22.28    1.11
   5  10   4   21.33    1.18
   5  10   4   25.93    1.74
   5  10   4   26.75    3.87
   5  10   5   68.10    1.79
   5  10   5   66.62    4.58
   5  10   5   66.07    1.87
   5  10   5   74.47    2.31
   5  10   6   63.74    1.77
   5  10   6   64.65    1.71
   5  10   6   61.16    4.01
   5  10   6   62.42    2.02
   5  10   6   71.50    2.24
   5  10   6   67.26    2.00
   5  10   7   57.02    1.97
   5  10   7   49.89    3.47
   5  10   7   51.16    1.49
   5  10   7   46.72    1.49
   5  10   7   49.09    1.71
   5  10   7   53.47    1.83
   5  10   7   58.46    1.86
   5  10   8   19.37    1.21
   5  10   8   17.28    1.11
   5  10   8   19.10    0.97
   5  10   8   19.93    1.28
   5  10   8   20.28    1.34
   5  10   8   17.50    2.27
   5  10   9  138.81    3.04
   5  10   9  117.79    2.59
   5  10   9  110.64    2.46
   5  10   9  129.64    2.78
   5  10   9  137.82    2.91
   5  10   9  105.79    4.64
   5  10  10   37.00    1.54
   5  10  10   35.11    1.39
   5  10  11   91.51    2.06
   5  10  11   95.68    2.46
   5  10  11   98.08    2.27
   5  10  12   91.04    2.27
   5  10  13   39.51    1.44
   5  10  13   43.15    1.13
   5  10  13   41.10    1.33
   5  10  13   42.21    1.17
   5  10  13   44.44    1.52
   5  10  14   37.01    1.29
   5  10  14   34.32    1.37
   5  10  14   36.81    0.97
   5  10  15    5.19    0.75
   5  10  15    5.09    0.73
   5  10  15    4.50    0.42
   5  10  16   28.63    0.95
   5  10  16   27.20    0.90
   5  11  -7    5.80    1.03
   5  11  -5    2.67    0.52
   5  11  -5    2.30    1.23
   5  11  -4    5.20    0.65
   5  11  -3   14.58    0.91
   5  11  -3   13.44    1.51
   5  11  -2  189.85    3.59
   5  11  -2  191.10    3.79
   5  11  -1   31.53    1.34
   5  11  -1   31.45    1.86
   5  11  -1   31.03    1.47
   5  11  -1   27.48    2.63
   5  11   0  279.82    4.91
   5  11   0  312.09    5.30
   5  11   0  296.81    5.29
   5  11   0  269.28    8.18
   5  11   1    1.90    1.55
   5  11   1    2.54    1.16
   5  11   1    1.94    1.82
   5  11   2   31.63    1.87
   5  11   2   24.60    1.12
   5  11   2   29.24    1.79
   5  11   2   27.90    3.26
   5  11   3    0.86    0.60
   5  11   3    0.87    0.67
   5  11   3    1.98    1.48
   5  11   3    0.85    1.75
   5  11   3    1.33    2.73
   5  11   4   64.67    1.71
   5  11   4  103.91    3.90
   5  11   4   90.89    6.91
   5  11   4   62.38    1.78
   5  11   4   77.74    2.37
   5  11   5   33.95    1.19
   5  11   5   40.35    2.22
   5  11   5   38.57    3.92
   5  11   5   35.76    1.58
   5  11   5   34.37    1.26
   5  11   5   40.90    1.92
   5  11   6  158.16    3.14
   5  11   6  161.22    3.10
   5  11   6  188.81    3.92
   5  11   6  171.01    6.60
   5  11   6  167.96    3.49
   5  11   6  190.72    3.69
   5  11   6  201.46    3.72
   5  11   7   25.00    1.01
   5  11   7   28.77    1.35
   5  11   7   26.06    1.27
   5  11   7   26.97    1.43
   5  11   7   28.82    1.57
   5  11   7   26.10    2.70
   5  11   8  172.88    3.32
   5  11   8  177.48    3.51
   5  11   8  218.82    3.97
   5  11   8  170.37    6.18
   5  11   8  199.82    3.74
   5  11   8  215.18    3.96
   5  11   9   56.64    1.83
   5  11   9   52.74    1.72
   5  11   9   58.26    1.84
   5  11  10   35.48    1.37
   5  11  10   40.70    1.52
   5  11  11  213.74    4.02
   5  11  12    9.16    0.57
   5  11  12   10.61    1.00
   5  11  13   67.69    1.37
   5  11  13   64.46    1.62
   5  11  13   63.96    1.73
   5  11  14   28.60    0.87
   5  11  14   26.75    0.89
   5  11  15    7.68    0.69
   5  11  15    6.04    0.68
   5  11  16    0.95    0.47
   5  11  16    0.62    0.35
   5  11  16    0.68    0.33
   5  12  -7    8.85    0.88
   5  12  -6   11.09    1.08
   5  12  -5   18.12    0.75
   5  12  -5   21.45    1.32
   5  12  -4   25.91    0.98
   5  12  -4   25.93    1.49
   5  12  -3   41.60    1.34
   5  12  -3   43.19    1.78
   5  12  -2    0.60    0.63
   5  12  -2    0.59    0.80
   5  12  -1   30.14    1.43
   5  12  -1   33.80    1.32
   5  12  -1   34.22    1.76
   5  12  -1   28.83    1.20
   5  12   0    0.57    0.67
   5  12   0    0.53    1.38
   5  12   0    0.39    0.99
   5  12   1    6.98    1.58
   5  12   1    7.20    1.24
   5  12   1    5.39    1.95
   5  12   2    6.75    1.54
   5  12   2    6.89    1.32
   5  12   2    5.25    2.15
   5  12   3   86.36    2.52
   5  12   3   92.65    2.92
   5  12   4    0.87    1.46
   5  12   4    0.46    1.74
   5  12   4    2.35    2.50
   5  12   5  119.95    2.85
   5  12   5  128.52    3.31
   5  12   5  123.94    5.93
   5  12   6    0.48    0.75
   5  12   6    0.50    1.40
   5  12   6    1.24    0.96
   5  12   6    1.05    1.18
   5  12   6    0.68    1.71
   5  12   7  106.56    2.64
   5  12   7  103.67    2.46
   5  12   8   11.53    0.83
   5  12   8   12.73    1.06
   5  12   8   12.96    1.04
   5  12   8   14.54    1.23
   5  12   9  112.70    2.63
   5  12   9  113.21    2.61
   5  12  10   44.07    1.53
   5  12  11   31.49    1.23
   5  12  11   21.85    1.26
   5  12  12   23.03    1.00
   5  12  12   28.51    1.24
   5  12  13   10.04    0.60
   5  12  13   12.01    0.86
   5  12  13    9.70    0.79
   5  12  14   13.89    0.88
   5  12  14   12.91    0.56
   5  12  15    7.36    0.56
   5  12  15    7.90    0.57
   5  13  -6    4.92    0.81
   5  13  -5   20.60    1.16
   5  13  -4   10.47    0.61
   5  13  -4   12.54    1.20
   5  13  -3   20.21    0.88
   5  13  -3   21.72    1.41
   5  13  -2   65.03    1.68
   5  13  -2   66.23    2.01
   5  13  -1    1.30    0.64
   5  13  -1    1.06    0.84
   5  13   0   44.85    1.50
   5  13   0   43.53    1.63
   5  13   1   18.44    1.34
   5  13   2   40.23    1.85
   5  13   2   42.86    1.82
   5  13   3   20.94    1.59
   5  13   3   19.29    1.57
   5  13   4  167.74    3.31
   5  13   4  185.63    3.80
   5  13   5    0.03    0.72
   5  13   5    0.56    1.23
   5  13   5    0.47    1.34
   5  13   6   34.19    1.66
   5  13   6   33.86    1.69
   5  13   7   10.10    1.19
   5  13   8   76.56    2.13
   5  13   9   18.68    1.04
   5  13   9   15.09    0.98
   5  13  10   29.75    1.38
   5  13  10   30.70    1.16
   5  13  11   18.46    0.92
   5  13  11   14.56    1.04
   5  13  12   11.42    0.65
   5  13  12   15.57    0.93
   5  13  13   20.14    0.88
   5  13  13   16.71    0.76
   5  13  14    8.16    0.60
   5  13  14    7.79    0.63
   5  14  -6    6.91    0.53
   5  14  -5    1.39    0.72
   5  14  -4   21.54    1.09
   5  14  -3   21.49    1.22
   5  14  -3   18.91    0.75
   5  14  -2    1.48    1.13
   5  14  -2    1.62    0.49
   5  14  -1   36.76    1.58
   5  14  -1   34.24    1.16
   5  14   0    2.84    1.24
   5  14   0    3.21    0.64
   5  14   0    3.26    0.88
   5  14   1   62.08    1.98
   5  14   1   62.04    1.89
   5  14   2   23.05    1.51
   5  14   2   23.48    1.37
   5  14   3   13.92    1.42
   5  14   3   15.83    1.34
   5  14   4    2.54    1.29
   5  14   4    5.09    1.18
   5  14   5   73.47    2.15
   5  14   5   68.72    2.02
   5  14   6    1.30    0.79
   5  14   6    1.43    1.02
   5  14   7   81.03    2.01
   5  14   7  104.96    2.39
   5  14   8   22.66    1.06
   5  14   8   29.20    1.32
   5  14   9   21.53    0.95
   5  14  10    2.78    0.81
   5  14  11   14.12    0.90
   5  14  12   10.24    0.72
   5  14  12    8.58    0.71
   5  14  13   11.29    0.58
   5  14  13    6.94    0.63
   5  15  -4    3.24    0.61
   5  15  -3    8.41    0.83
   5  15  -2   13.88    1.01
   5  15  -1   11.16    1.09
   5  15  -1   10.39    0.62
   5  15   0   26.57    1.33
   5  15   0   24.53    0.93
   5  15   0   23.28    1.03
   5  15   1    7.82    1.17
   5  15   1    6.65    0.66
   5  15   1    7.64    0.89
   5  15   2   37.88    1.55
   5  15   2   39.46    1.45
   5  15   3    1.38    1.13
   5  15   3    1.61    0.90
   5  15   4  118.42    2.48
   5  15   4  130.96    2.64
   5  15   5   -0.03    0.67
   5  15   5    0.27    0.91
   5  15   6   18.65    0.93
   5  15   6   25.30    1.24
   5  15   7    0.88    0.60
   5  15   7    2.06    0.83
   5  15   8   43.03    1.19
   5  15   8   57.55    1.52
   5  15   9    4.61    0.80
   5  15  10   48.25    1.35
   5  15  11    6.84    0.63
   5  15  12   27.63    0.78
   5  16  -2   28.03    0.87
   5  16  -1    6.79    0.76
   5  16   0   40.23    1.23
   5  16   1   56.78    1.47
   5  16   1   53.63    1.27
   5  16   2   24.94    1.13
   5  16   2   26.67    0.89
   5  16   2   25.28    1.03
   5  16   3   43.73    1.35
   5  16   3   42.71    1.15
   5  16   4    5.43    0.61
   5  16   4    8.35    0.84
   5  16   5   48.55    1.24
   5  16   5   77.42    1.69
   5  16   6    4.19    0.51
   5  16   6    7.80    0.80
   5  16   7   37.64    0.91
   5  16   8    1.94    0.62
   5  16   9   20.98    0.86
   5  16  10    3.17    0.46
   5  17   7    1.35    0.45
   5  17   8    7.88    0.48
   6 -13  -2   43.22    0.95
   6 -13  -2   43.50    0.91
   6 -13  -1   33.13    0.84
   6 -13  -1   38.92    0.89
   6 -13   0    4.93    0.35
   6 -13   0    3.16    0.33
   6 -13   1   22.62    0.70
   6 -13   1   27.04    0.77
   6 -13   2    0.03    0.32
   6 -13   2    0.35    0.34
   6 -13   3   30.83    0.84
   6 -13   4    4.66    0.37
   6 -13   4    7.60    0.43
   6 -13   5   22.77    0.60
   6 -12  -5   12.96    0.53
   6 -12  -4   20.38    0.75
   6 -12  -4   19.47    0.57
   6 -12  -3   70.34    1.52
   6 -12  -3   70.02    1.41
   6 -12  -2   34.93    0.94
   6 -12  -2   33.58    1.00
   6 -12  -1    7.80    0.56
   6 -12  -1    8.64    0.70
   6 -12  -1    9.06    0.67
   6 -12   0   42.56    1.20
   6 -12   0   45.65    1.26
   6 -12   0   45.04    1.21
   6 -12   0   46.81    1.24
   6 -12   1   10.74    0.75
   6 -12   1   10.94    0.70
   6 -12   1   10.80    0.69
   6 -12   1   11.36    0.75
   6 -12   2   32.97    1.11
   6 -12   2   31.46    1.04
   6 -12   3    1.55    0.58
   6 -12   3    1.89    0.51
   6 -12   4   59.96    1.43
   6 -12   4   56.12    1.19
   6 -12   4   60.01    1.42
   6 -12   5    0.32    0.28
   6 -12   5    0.47    0.42
   6 -12   5    0.07    0.45
   6 -12   6   24.40    0.64
   6 -12   6   22.27    0.70
   6 -12   7    1.24    0.32
   6 -11  -7    4.00    0.32
   6 -11  -6   10.98    0.57
   6 -11  -6   16.46    0.62
   6 -11  -5   18.42    0.80
   6 -11  -5   17.28    0.57
   6 -11  -4    9.82    0.78
   6 -11  -4   10.11    0.59
   6 -11  -3   12.95    0.66
   6 -11  -3   14.50    0.75
   6 -11  -3   17.67    0.96
   6 -11  -3   17.36    0.81
   6 -11  -2   19.46    0.85
   6 -11  -2   20.34    0.89
   6 -11  -2   22.14    1.07
   6 -11  -2   21.64    0.98
   6 -11  -1   30.71    1.13
   6 -11  -1   33.33    1.22
   6 -11  -1   32.09    1.12
   6 -11  -1   33.86    1.27
   6 -11   0   10.78    0.80
   6 -11   0   12.39    0.92
   6 -11   0   11.59    0.87
   6 -11   0   11.36    0.75
   6 -11   0   12.06    0.93
   6 -11   1   64.96    1.79
   6 -11   1   64.79    1.79
   6 -11   1   66.35    1.66
   6 -11   1   69.87    1.74
   6 -11   2    3.12    0.49
   6 -11   2    3.62    0.70
   6 -11   2    3.74    0.66
   6 -11   2    4.26    0.78
   6 -11   2    3.30    0.74
   6 -11   3   34.42    1.32
   6 -11   3   33.86    1.24
   6 -11   3   33.29    1.07
   6 -11   3   32.74    1.21
   6 -11   4    2.81    0.51
   6 -11   4    3.19    0.65
   6 -11   4    3.20    0.72
   6 -11   4    2.55    0.60
   6 -11   5   45.51    1.39
   6 -11   5   46.27    1.23
   6 -11   5   47.74    1.39
   6 -11   5   47.24    1.40
   6 -11   6    0.09    0.51
   6 -11   6   -0.04    0.52
   6 -11   6    0.12    0.40
   6 -11   6    0.08    0.52
   6 -11   7   47.37    1.17
   6 -11   7   58.83    1.37
   6 -11   7   52.62    1.34
   6 -11   7   53.63    1.25
   6 -11   8    4.17    0.47
   6 -11   8    4.49    0.41
   6 -11   9   64.73    1.26
   6 -11   9   61.57    1.17
   6 -10  -8    0.33    0.27
   6 -10  -7   14.11    0.69
   6 -10  -7   14.94    0.57
   6 -10  -6   11.24    0.74
   6 -10  -6   11.08    0.45
   6 -10  -5   17.87    0.82
   6 -10  -5   20.37    0.99
   6 -10  -5   19.41    0.75
   6 -10  -4   16.94    0.78
   6 -10  -4   18.43    0.87
   6 -10  -4   22.83    1.12
   6 -10  -4   22.53    0.92
   6 -10  -3   17.63    0.87
   6 -10  -3   17.35    0.89
   6 -10  -3   20.91    1.20
   6 -10  -3   20.99    1.00
   6 -10  -2   51.37    1.52
   6 -10  -2   53.48    1.61
   6 -10  -2   49.40    1.47
   6 -10  -2   54.73    1.74
   6 -10  -1    2.72    0.69
   6 -10  -1    2.89    0.65
   6 -10  -1    3.19    0.79
   6 -10  -1    3.07    0.73
   6 -10  -1    2.95    0.64
   6 -10  -1    3.08    0.91
   6 -10   0   27.76    1.32
   6 -10   0   27.76    1.29
   6 -10   0   25.59    1.12
   6 -10   0   27.63    1.34
   6 -10   1   12.91    0.96
   6 -10   1   12.86    1.11
   6 -10   1   13.34    1.06
   6 -10   1   13.31    0.90
   6 -10   1   11.73    0.79
   6 -10   1   14.71    1.09
   6 -10   2   22.36    1.17
   6 -10   2   23.38    1.33
   6 -10   2   22.17    1.27
   6 -10   2   23.27    1.07
   6 -10   2   22.36    1.01
   6 -10   2   23.45    1.19
   6 -10   3   34.75    1.47
   6 -10   3   36.95    1.56
   6 -10   3   37.08    1.42
   6 -10   3   37.07    1.46
   6 -10   3   37.96    1.28
   6 -10   3   39.94    1.36
   6 -10   4  131.53    2.90
   6 -10   4  148.05    3.20
   6 -10   4  155.90    2.92
   6 -10   4  137.67    3.08
   6 -10   4  149.68    3.06
   6 -10   4  145.06    3.09
   6 -10   5   15.31    1.06
   6 -10   5   15.37    0.88
   6 -10   5   14.75    1.03
   6 -10   5   15.82    0.98
   6 -10   5   15.39    1.01
   6 -10   6   82.76    1.89
   6 -10   6   76.82    2.03
   6 -10   6   80.00    2.03
   6 -10   6   83.46    2.01
   6 -10   7    0.58    0.60
   6 -10   7    0.40    0.60
   6 -10   7    0.95    0.60
   6 -10   7    0.56    0.52
   6 -10   8   45.66    1.32
   6 -10   8   47.72    1.34
   6 -10   8   46.66    1.26
   6 -10   9   15.71    0.71
   6 -10   9   17.86    0.76
   6 -10   9   17.45    0.73
   6 -10  10   58.80    1.24
   6 -10  10   57.39    1.21
   6  -9  -8   19.93    0.76
   6  -9  -7   -0.40    0.47
   6  -9  -6   64.19    1.55
   6  -9  -6   63.17    1.61
   6  -9  -6   63.61    1.34
   6  -9  -5   17.25    0.90
   6  -9  -5   19.19    1.10
   6  -9  -5   19.14    0.86
   6  -9  -4   78.07    1.90
   6  -9  -4   83.58    2.19
   6  -9  -4   79.64    1.89
   6  -9  -3   20.56    1.04
   6  -9  -3   21.89    1.13
   6  -9  -3   23.11    1.43
   6  -9  -3   18.85    1.01
   6  -9  -2   27.65    1.51
   6  -9  -2   24.47    1.14
   6  -9  -1   39.74    1.40
   6  -9   0   83.24    2.10
   6  -9   0   85.85    2.40
   6  -9   1   78.54    2.46
   6  -9   1   79.20    2.33
   6  -9   1   83.34    2.09
   6  -9   1   79.07    2.23
   6  -9   2   27.63    1.77
   6  -9   2   26.11    1.17
   6  -9   2   26.02    1.32
   6  -9   2   26.40    1.35
   6  -9   2   27.27    1.51
   6  -9   3   54.27    1.66
   6  -9   3   54.30    2.11
   6  -9   3   52.48    1.88
   6  -9   3   54.84    1.83
   6  -9   3   52.78    1.84
   6  -9   4   36.75    1.39
   6  -9   5  113.34    2.48
   6  -9   5   92.17    2.33
   6  -9   6   27.44    1.35
   6  -9   6   30.27    1.45
   6  -9   6   28.98    1.38
   6  -9   6   31.14    1.35
   6  -9   6   30.77    1.24
   6  -9   6   29.82    1.16
   6  -9   7   74.40    1.95
   6  -9   7   69.47    2.02
   6  -9   7   74.30    2.05
   6  -9   7   72.41    1.87
   6  -9   7   71.56    1.80
   6  -9   8    0.64    0.62
   6  -9   8    0.70    0.64
   6  -9   8    0.55    0.64
   6  -9   8   -0.02    0.57
   6  -9   8   -0.05    0.49
   6  -9   8    0.30    0.52
   6  -9   9   55.74    1.51
   6  -9   9   57.68    1.51
   6  -9   9   56.89    1.47
   6  -9  10    0.56    0.45
   6  -9  10    0.89    0.48
   6  -9  10    0.62    0.42
   6  -9  11   37.16    0.96
   6  -9  11   35.85    0.96
   6  -8  -9   12.73    0.57
   6  -8  -8    0.28    0.53
   6  -8  -7   17.99    0.84
   6  -8  -6    0.24    0.72
   6  -8  -6    0.54    0.46
   6  -8  -5   37.74    1.52
   6  -8  -5   39.97    1.25
   6  -8  -4   18.98    1.02
   6  -8  -4   18.71    1.01
   6  -8  -4   21.23    1.47
   6  -8  -3  103.76    2.41
   6  -8  -2    0.11    0.85
   6  -8  -2    0.78    0.64
   6  -8  -2    0.01    0.69
   6  -8  -1   38.07    1.57
   6  -8  -1   34.89    1.61
   6  -8  -1   37.05    1.58
   6  -8  -1   33.14    1.35
   6  -8  -1   34.04    1.78
   6  -8   0   67.46    2.11
   6  -8   0   68.36    2.30
   6  -8   0   70.52    2.23
   6  -8   0   68.64    1.94
   6  -8   0   69.11    1.94
   6  -8   0   70.78    2.30
   6  -8   1   21.14    1.22
   6  -8   1   25.75    1.39
   6  -8   1   26.93    1.75
   6  -8   1   27.44    1.55
   6  -8   1   25.23    1.21
   6  -8   1   26.36    1.24
   6  -8   1   26.13    1.52
   6  -8   2   26.09    1.40
   6  -8   2   21.03    1.11
   6  -8   2   25.77    1.44
   6  -8   2   25.12    1.60
   6  -8   2   27.79    2.24
   6  -8   2   25.02    1.19
   6  -8   2   28.22    1.48
   6  -8   2   26.05    1.26
   6  -8   3   51.72    1.99
   6  -8   3   53.74    1.91
   6  -8   3   54.60    1.99
   6  -8   3   55.46    2.38
   6  -8   3   51.25    1.60
   6  -8   3   55.53    2.66
   6  -8   3   55.64    1.70
   6  -8   3   53.28    1.75
   6  -8   3   58.38    1.89
   6  -8   4   34.68    1.34
   6  -8   4   31.51    1.67
   6  -8   4   34.73    1.69
   6  -8   4   33.29    1.61
   6  -8   4   35.21    1.57
   6  -8   4   35.66    1.45
   6  -8   4   35.72    1.49
   6  -8   5   67.11    2.62
   6  -8   5   66.12    1.89
   6  -8   5   67.23    2.28
   6  -8   5   64.10    2.16
   6  -8   5   67.75    2.09
   6  -8   5   68.70    2.00
   6  -8   6   72.93    1.97
   6  -8   6   71.54    2.12
   6  -8   6   72.73    2.45
   6  -8   6   70.46    2.29
   6  -8   6   72.77    2.01
   6  -8   6   71.26    1.83
   6  -8   7   20.58    1.09
   6  -8   7   20.77    0.97
   6  -8   7   19.64    1.13
   6  -8   7   16.81    1.10
   6  -8   8  125.45    2.58
   6  -8   8  127.86    2.73
   6  -8   8  120.97    2.52
   6  -8   8  117.94    2.87
   6  -8   8  121.63    2.73
   6  -8   8  123.97    2.72
   6  -8   9   13.01    0.85
   6  -8   9   12.78    0.88
   6  -8   9   11.93    0.71
   6  -8   9   10.98    0.76
   6  -8   9   10.50    0.89
   6  -8   9   11.67    0.88
   6  -8   9   12.21    0.89
   6  -8  10  125.01    2.36
   6  -8  10  120.80    2.48
   6  -8  10  117.05    2.44
   6  -8  10  122.35    2.47
   6  -8  11   43.13    1.16
   6  -8  11   43.72    1.22
   6  -8  11   40.13    1.17
   6  -8  11   42.53    1.20
   6  -8  12   48.68    1.11
   6  -8  12   44.56    1.13
   6  -8  12   45.91    1.04
   6  -8  12   46.09    1.12
   6  -7 -10   30.75    0.77
   6  -7  -9    0.09    0.43
   6  -7  -8   25.36    1.05
   6  -7  -7    7.37    0.71
   6  -7  -6   21.84    1.15
   6  -7  -6   26.08    0.96
   6  -7  -5    2.75    0.99
   6  -7  -4   18.83    1.07
   6  -7  -4   19.85    1.12
   6  -7  -3    5.38    0.83
   6  -7  -3    4.66    2.09
   6  -7  -3    5.53    0.91
   6  -7  -2   81.57    2.27
   6  -7  -2   78.56    2.31
   6  -7  -2   72.30    2.05
   6  -7  -2   80.12    3.06
   6  -7  -1   15.67    1.19
   6  -7  -1   14.25    1.28
   6  -7  -1   15.20    1.22
   6  -7  -1   13.17    0.98
   6  -7  -1   14.07    0.99
   6  -7  -1   13.95    1.51
   6  -7   0   46.47    1.81
   6  -7   0   51.64    1.94
   6  -7   0   47.67    1.99
   6  -7   0   48.35    1.62
   6  -7   0   49.47    1.68
   6  -7   0   48.75    1.99
   6  -7   1   11.63    1.11
   6  -7   1   11.85    1.31
   6  -7   1   10.60    0.77
   6  -7   1   12.48    1.44
   6  -7   1   10.13    0.89
   6  -7   1   11.92    0.99
   6  -7   1   10.91    1.29
   6  -7   2   73.03    2.25
   6  -7   2   62.83    1.94
   6  -7   2   70.46    2.31
   6  -7   2   68.05    2.45
   6  -7   2   67.73    1.89
   6  -7   2   77.34    2.87
   6  -7   2   69.23    1.93
   6  -7   2   72.60    2.28
   6  -7   2   71.97    2.09
   6  -7   3   69.62    2.37
   6  -7   3   61.31    1.83
   6  -7   3   71.46    2.33
   6  -7   3   70.53    2.25
   6  -7   3   72.17    2.77
   6  -7   3   68.53    1.89
   6  -7   3   73.16    2.00
   6  -7   3   81.53    2.89
   6  -7   3   72.15    1.97
   6  -7   3   75.13    2.16
   6  -7   3   75.38    2.24
   6  -7   4   24.67    1.56
   6  -7   4   24.55    1.49
   6  -7   4   26.30    1.44
   6  -7   4   31.54    2.32
   6  -7   4   24.15    1.13
   6  -7   4   24.43    1.19
   6  -7   4   20.25    0.88
   6  -7   4   23.63    1.52
   6  -7   4   24.17    1.16
   6  -7   4   25.27    1.34
   6  -7   4   27.36    1.41
   6  -7   5   89.98    3.04
   6  -7   5   88.48    2.19
   6  -7   5   86.50    2.31
   6  -7   5   84.01    2.25
   6  -7   5   75.83    2.25
   6  -7   5   84.93    2.46
   6  -7   5   80.22    2.69
   6  -7   5   84.11    2.60
   6  -7   5   88.61    2.39
   6  -7   5   89.91    2.25
   6  -7   6   28.24    1.56
   6  -7   6   30.08    1.26
   6  -7   6   29.06    1.35
   6  -7   6   30.77    1.32
   6  -7   6   25.39    1.21
   6  -7   6   30.22    1.95
   6  -7   6   29.04    1.44
   6  -7   6   28.56    1.69
   6  -7   6   29.17    1.42
   6  -7   7   66.90    2.11
   6  -7   7   83.00    2.28
   6  -7   7   84.07    2.11
   6  -7   7   70.29    1.80
   6  -7   7   87.24    3.12
   6  -7   7   80.98    2.81
   6  -7   7   76.89    2.26
   6  -7   7   82.93    2.28
   6  -7   7   82.58    2.10
   6  -7   8   11.27    0.86
   6  -7   9   70.00    1.81
   6  -7   9   65.66    1.66
   6  -7   9   62.32    1.61
   6  -7   9   68.01    1.97
   6  -7   9   59.26    1.96
   6  -7   9   62.50    1.93
   6  -7  10    2.97    0.66
   6  -7  10    3.15    0.62
   6  -7  10    2.94    0.72
   6  -7  10    2.54    0.64
   6  -7  10    2.96    0.69
   6  -7  11   95.30    2.02
   6  -7  11   91.61    2.14
   6  -7  11   88.32    1.87
   6  -7  11   90.45    2.06
   6  -7  11   91.04    2.09
   6  -7  11   95.42    2.00
   6  -7  12   24.94    0.95
   6  -7  12   24.54    0.87
   6  -7  12   26.62    0.90
   6  -7  12   24.96    0.92
   6  -7  12   23.67    0.86
   6  -7  13   25.69    0.78
   6  -7  13   24.39    0.75
   6  -6 -10    0.93    0.45
   6  -6  -9   17.84    0.79
   6  -6  -8    0.43    0.64
   6  -6  -6   18.92    0.90
   6  -6  -6   17.09    1.09
   6  -6  -5   25.88    1.14
   6  -6  -5   22.98    1.13
   6  -6  -4   56.98    1.76
   6  -6  -4   54.97    2.24
   6  -6  -4   50.70    1.73
   6  -6  -3  360.05    5.90
   6  -6  -3  358.42    5.92
   6  -6  -2    2.53    0.99
   6  -6  -2    1.14    0.83
   6  -6  -2    2.55    1.61
   6  -6  -2    1.83    0.75
   6  -6  -1   31.86    1.53
   6  -6  -1   30.84    1.58
   6  -6  -1   30.69    1.54
   6  -6  -1   23.33    1.21
   6  -6  -1   27.60    1.30
   6  -6  -1   27.98    1.80
   6  -6  -1   23.99    1.16
   6  -6   0    6.31    0.99
   6  -6   0    6.64    1.18
   6  -6   0    6.20    1.11
   6  -6   0    5.42    0.78
   6  -6   0    5.91    0.83
   6  -6   0    5.37    1.27
   6  -6   0    5.03    0.78
   6  -6   1   48.56    1.86
   6  -6   1   51.88    2.09
   6  -6   1   50.75    2.03
   6  -6   1   44.93    1.56
   6  -6   1   53.19    1.77
   6  -6   1   52.03    2.00
   6  -6   1   43.02    1.45
   6  -6   2    0.95    0.81
   6  -6   2    1.21    0.92
   6  -6   2    1.36    1.17
   6  -6   2    1.55    0.88
   6  -6   2    1.47    1.10
   6  -6   2    0.84    0.61
   6  -6   2    0.85    0.77
   6  -6   2    0.58    1.09
   6  -6   2    0.97    0.64
   6  -6   3  172.30    4.01
   6  -6   3  162.71    3.48
   6  -6   3  175.29    3.99
   6  -6   3  181.40    3.92
   6  -6   3  189.64    4.16
   6  -6   3  184.38    4.30
   6  -6   3  179.04    3.50
   6  -6   3  188.57    3.83
   6  -6   3  188.39    3.84
   6  -6   4   56.04    1.70
   6  -6   4   61.02    2.28
   6  -6   4   64.34    2.28
   6  -6   4   68.37    2.20
   6  -6   4   66.23    1.93
   6  -6   4   62.95    2.14
   6  -6   4   74.95    2.73
   6  -6   4   67.59    1.86
   6  -6   4   70.13    2.14
   6  -6   4   71.55    2.13
   6  -6   5   61.83    2.37
   6  -6   5   58.75    1.81
   6  -6   5   54.27    1.86
   6  -6   5   54.97    2.29
   6  -6   5   59.35    2.06
   6  -6   5   56.31    2.20
   6  -6   5   62.80    2.07
   6  -6   5   62.21    1.94
   6  -6   6   86.11    2.54
   6  -6   6   85.59    2.41
   6  -6   6   93.03    2.35
   6  -6   6   82.06    1.95
   6  -6   6   89.51    2.25
   6  -6   6   85.02    2.19
   6  -6   6   76.60    2.11
   6  -6   6   95.90    3.25
   6  -6   6   79.16    1.93
   6  -6   6   85.81    2.85
   6  -6   6   87.42    2.50
   6  -6   6   80.16    2.53
   6  -6   6   89.78    2.47
   6  -6   7   59.80    2.01
   6  -6   7   70.66    2.03
   6  -6   7   67.52    1.95
   6  -6   7   70.42    1.90
   6  -6   7   62.62    1.68
   6  -6   7   69.98    2.20
   6  -6   7   76.78    3.14
   6  -6   7   65.46    2.49
   6  -6   8  165.74    3.52
   6  -6   8  189.68    3.62
   6  -6   8  183.78    3.48
   6  -6   8  195.04    3.79
   6  -6   8  172.97    4.14
   6  -6   8  196.73    4.91
   6  -6   8  188.34    3.94
   6  -6   8  181.92    3.75
   6  -6   8  209.68    4.87
   6  -6   9    4.24    0.75
   6  -6   9    4.21    0.77
   6  -6   9    4.78    0.84
   6  -6   9    3.85    0.99
   6  -6  10   61.00    1.61
   6  -6  10   68.66    2.01
   6  -6  10   67.81    1.65
   6  -6  10   64.30    1.58
   6  -6  10   71.53    1.93
   6  -6  11    9.43    0.76
   6  -6  11    9.37    0.83
   6  -6  11    9.64    0.83
   6  -6  11    9.04    0.76
   6  -6  11    8.90    0.64
   6  -6  11    8.79    0.87
   6  -6  11   10.45    0.83
   6  -6  12   19.00    0.89
   6  -6  12   16.25    0.90
   6  -6  12   18.51    0.91
   6  -6  12   17.75    0.85
   6  -6  12   18.91    0.91
   6  -6  12   17.32    0.89
   6  -6  13    0.62    0.51
   6  -6  13    0.14    0.47
   6  -6  13    0.63    0.45
   6  -6  13    0.75    0.41
   6  -6  14   47.10    1.04
   6  -6  14   49.32    1.06
   6  -5 -10   49.01    1.19
   6  -5  -9    2.21    0.53
   6  -5  -8   56.88    1.63
   6  -5  -7    0.61    0.62
   6  -5  -6  110.92    2.30
   6  -5  -6   71.66    2.08
   6  -5  -5    3.83    0.78
   6  -5  -5    6.12    0.79
   6  -5  -5    4.44    0.89
   6  -5  -5    4.91    0.78
   6  -5  -4  241.24    4.43
   6  -5  -4  246.07    4.27
   6  -5  -4  243.00    4.36
   6  -5  -3    0.44    0.82
   6  -5  -3    2.03    1.39
   6  -5  -3    1.80    0.88
   6  -5  -3    0.91    0.92
   6  -5  -2  393.35    6.50
   6  -5  -2  416.85    6.93
   6  -5  -2  416.94    7.00
   6  -5  -2  384.27    6.62
   6  -5  -1    6.90    1.12
   6  -5  -1    7.06    1.01
   6  -5  -1    8.22    1.14
   6  -5  -1    6.53    1.04
   6  -5  -1    6.71    0.91
   6  -5  -1    7.07    1.39
   6  -5  -1    7.00    1.00
   6  -5   0    3.21    0.90
   6  -5   0    3.59    1.06
   6  -5   0    2.96    0.57
   6  -5   0    2.77    0.58
   6  -5   0    2.90    1.05
   6  -5   0    3.11    0.69
   6  -5   0    3.62    0.83
   6  -5   0    3.84    1.21
   6  -5   0    3.71    0.87
   6  -5   1   15.55    1.35
   6  -5   1   15.36    0.85
   6  -5   1   16.41    0.98
   6  -5   1   17.05    1.37
   6  -5   1   14.71    1.18
   6  -5   1   17.94    1.47
   6  -5   1   16.04    1.09
   6  -5   1   16.78    1.16
   6  -5   2   44.48    1.94
   6  -5   2   44.17    1.54
   6  -5   2   41.58    1.31
   6  -5   2   44.43    1.56
   6  -5   2   45.14    1.89
   6  -5   2   46.33    1.79
   6  -5   2   41.14    1.66
   6  -5   2   43.87    1.84
   6  -5   2   45.92    1.70
   6  -5   2   46.12    1.91
   6  -5   2   46.13    1.53
   6  -5   3   22.43    1.58
   6  -5   3   22.13    1.18
   6  -5   3   22.11    1.21
   6  -5   3   19.75    0.93
   6  -5   3   19.55    1.12
   6  -5   3   24.61    1.47
   6  -5   3   19.73    1.42
   6  -5   3   20.60    1.20
   6  -5   3   22.38    1.44
   6  -5   3   22.62    1.38
   6  -5   3   22.53    1.30
   6  -5   3   24.24    1.51
   6  -5   3   22.43    1.12
   6  -5   4  194.54    4.31
   6  -5   4  185.89    3.68
   6  -5   4  201.78    4.17
   6  -5   4  194.76    4.28
   6  -5   4  207.79    4.44
   6  -5   4  203.33    3.95
   6  -5   4  205.29    4.08
   6  -5   4  188.50    3.49
   6  -5   4  193.79    3.80
   6  -5   4  194.57    4.02
   6  -5   4  195.20    3.69
   6  -5   4  208.68    4.16
   6  -5   4  212.98    4.08
   6  -5   5   97.97    2.77
   6  -5   5   96.67    2.47
   6  -5   5   93.38    2.56
   6  -5   5   82.94    1.99
   6  -5   5   95.20    2.34
   6  -5   5   93.19    2.38
   6  -5   5   88.53    2.36
   6  -5   5   91.51    2.81
   6  -5   5   93.54    2.62
   6  -5   5   86.83    2.73
   6  -5   5   97.96    2.62
   6  -5   5   98.28    2.48
   6  -5   6   39.67    1.99
   6  -5   6   36.94    1.91
   6  -5   6   37.54    1.68
   6  -5   6   38.43    1.47
   6  -5   6   34.21    1.38
   6  -5   6   35.84    1.65
   6  -5   6   39.14    1.51
   6  -5   6   34.24    1.72
   6  -5   6   39.22    1.70
   6  -5   7  159.74    3.96
   6  -5   7  138.23    3.36
   6  -5   7  155.58    4.07
   6  -5   7  143.75    3.24
   6  -5   7  135.78    3.16
   6  -5   7  145.96    3.10
   6  -5   7  144.45    3.09
   6  -5   7  138.20    3.68
   6  -5   8    4.52    0.91
   6  -5   8    3.62    0.99
   6  -5   8    4.41    1.28
   6  -5   8    3.87    0.93
   6  -5   8    4.30    0.77
   6  -5   8    4.09    0.79
   6  -5   8    5.65    1.43
   6  -5   8    4.03    0.80
   6  -5   8    4.96    0.85
   6  -5   8    5.58    0.84
   6  -5   9   36.46    1.43
   6  -5   9   36.53    1.74
   6  -5   9   34.13    1.59
   6  -5   9   37.30    1.51
   6  -5   9   35.60    1.32
   6  -5   9   39.80    1.60
   6  -5   9   35.73    1.36
   6  -5  10   16.77    1.02
   6  -5  10   15.26    1.11
   6  -5  11   81.86    2.10
   6  -5  11   84.98    1.93
   6  -5  12    0.69    0.63
   6  -5  12    0.74    0.65
   6  -5  12    0.88    0.51
   6  -5  12    0.91    0.67
   6  -5  12    0.43    0.60
   6  -5  13   23.37    0.92
   6  -5  13   23.37    0.95
   6  -5  13   24.71    0.95
   6  -5  13   21.40    0.77
   6  -5  13   24.19    0.97
   6  -5  13   26.08    1.04
   6  -5  14    2.61    0.54
   6  -5  14    2.96    0.48
   6  -5  14    3.04    0.50
   6  -5  14    2.57    0.39
   6  -5  15   39.94    0.87
   6  -5  15   39.60    0.88
   6  -4 -11   13.78    0.50
   6  -4 -10    9.59    0.66
   6  -4  -9   10.36    0.69
   6  -4  -9   17.17    0.85
   6  -4  -8    0.77    0.67
   6  -4  -8    0.79    0.59
   6  -4  -8    0.90    0.75
   6  -4  -7   87.11    2.12
   6  -4  -6    0.72    0.65
   6  -4  -6    0.54    0.58
   6  -4  -5   97.95    2.27
   6  -4  -5   94.71    2.22
   6  -4  -4   22.10    1.26
   6  -4  -4   25.96    1.17
   6  -4  -4   23.63    1.41
   6  -4  -4   21.21    1.38
   6  -4  -4   24.32    1.25
   6  -4  -3  414.77    7.06
   6  -4  -3  434.41    6.82
   6  -4  -3  423.54    7.19
   6  -4  -3  409.27    7.02
   6  -4  -3  430.29    7.01
   6  -4  -2   89.21    2.47
   6  -4  -2   88.24    2.43
   6  -4  -2   86.51    2.13
   6  -4  -2   89.50    2.64
   6  -4  -2   86.51    2.42
   6  -4  -1   93.93    2.37
   6  -4  -1   85.83    2.17
   6  -4  -1   96.08    2.56
   6  -4  -1  102.33    2.66
   6  -4  -1   91.51    2.38
   6  -4  -1   98.46    2.70
   6  -4  -1   95.32    2.49
   6  -4   0  207.27    4.27
   6  -4   0  196.87    3.76
   6  -4   0  208.70    3.83
   6  -4   0  196.13    3.79
   6  -4   0  210.55    4.19
   6  -4   0  197.56    4.11
   6  -4   0  211.15    4.07
   6  -4   0  214.98    4.28
   6  -4   0  212.49    4.05
   6  -4   1   49.30    1.95
   6  -4   1   46.43    1.48
   6  -4   1   48.51    1.58
   6  -4   1   49.24    1.59
   6  -4   1   50.17    1.88
   6  -4   1   44.28    1.74
   6  -4   1   50.60    1.73
   6  -4   1   49.91    1.91
   6  -4   1   49.63    1.73
   6  -4   2   61.77    2.16
   6  -4   2   58.54    1.84
   6  -4   2   54.54    1.62
   6  -4   2   56.87    1.64
   6  -4   2   57.81    1.83
   6  -4   2   61.49    2.06
   6  -4   2   61.59    2.02
   6  -4   2   62.79    1.99
   6  -4   2   61.59    1.97
   6  -4   2   64.80    2.13
   6  -4   2   60.72    1.85
   6  -4   3  155.12    3.59
   6  -4   3  158.46    3.32
   6  -4   3  149.42    3.00
   6  -4   3  158.36    3.36
   6  -4   3  144.49    3.07
   6  -4   3  151.03    3.38
   6  -4   3  148.30    3.23
   6  -4   3  150.41    3.54
   6  -4   3  149.77    3.43
   6  -4   3  154.65    3.41
   6  -4   3  164.04    3.48
   6  -4   3  161.07    3.01
   6  -4   3  160.77    3.17
   6  -4   4    6.53    1.10
   6  -4   4    8.31    0.93
   6  -4   4    7.78    0.72
   6  -4   4    8.54    0.91
   6  -4   4    7.22    0.98
   6  -4   4    7.13    0.81
   6  -4   4    7.87    1.01
   6  -4   4    7.11    1.00
   6  -4   4    6.67    1.07
   6  -4   4    7.31    0.86
   6  -4   4    7.18    1.06
   6  -4   4    8.12    1.03
   6  -4   4    9.37    1.19
   6  -4   4    8.27    0.92
   6  -4   4    8.68    0.90
   6  -4   5   54.53    1.61
   6  -4   5   58.54    2.13
   6  -4   5   59.15    2.02
   6  -4   5   58.38    2.12
   6  -4   5   61.16    2.08
   6  -4   5   61.35    2.04
   6  -4   5   56.64    1.58
   6  -4   5   59.75    1.96
   6  -4   5   59.15    1.78
   6  -4   5   55.18    1.80
   6  -4   5   60.89    1.91
   6  -4   5   60.72    2.03
   6  -4   5   62.99    1.98
   6  -4   5   62.67    1.71
   6  -4   6   33.30    1.57
   6  -4   6   32.85    1.69
   6  -4   6   32.10    1.68
   6  -4   6   30.69    1.50
   6  -4   6   31.93    1.56
   6  -4   6   32.00    1.16
   6  -4   6   33.51    1.50
   6  -4   6   33.08    1.34
   6  -4   6   29.65    1.29
   6  -4   6   33.75    1.47
   6  -4   6   34.03    1.58
   6  -4   6   35.83    1.33
   6  -4   7   68.45    2.30
   6  -4   7   70.89    2.43
   6  -4   7   67.65    2.23
   6  -4   7   70.27    2.13
   6  -4   7   65.85    2.03
   6  -4   7   70.59    1.99
   6  -4   7   73.72    2.10
   6  -4   7   67.75    2.28
   6  -4   7   72.72    2.02
   6  -4   7   72.31    1.87
   6  -4   8   33.07    1.67
   6  -4   8   34.47    1.56
   6  -4   8   37.29    1.74
   6  -4   8   35.97    1.56
   6  -4   8   32.02    1.36
   6  -4   8   37.11    1.44
   6  -4   8   36.21    1.43
   6  -4   8   34.90    1.46
   6  -4   8   37.30    1.76
   6  -4   8   36.39    1.48
   6  -4   8   37.59    1.33
   6  -4   9   64.44    2.46
   6  -4   9   64.81    2.03
   6  -4   9   61.09    2.04
   6  -4   9   67.96    1.85
   6  -4   9   70.61    2.24
   6  -4   9   65.65    1.92
   6  -4   9   66.23    1.94
   6  -4   9   65.14    1.83
   6  -4   9   68.95    1.72
   6  -4  10  108.80    3.37
   6  -4  10   94.92    2.34
   6  -4  10   95.58    2.45
   6  -4  10   92.95    2.32
   6  -4  10   91.29    2.12
   6  -4  10  103.52    2.77
   6  -4  11   41.77    1.75
   6  -4  12  122.25    2.58
   6  -4  12  118.52    2.65
   6  -4  12  120.55    2.51
   6  -4  12  125.64    2.78
   6  -4  13    2.94    0.64
   6  -4  13    2.25    0.63
   6  -4  13    2.50    0.55
   6  -4  13    2.26    0.67
   6  -4  13    2.13    0.56
   6  -4  14   91.80    1.89
   6  -4  14   87.96    1.80
   6  -4  14   82.00    1.69
   6  -4  14   91.53    1.85
   6  -4  14   98.00    2.01
   6  -4  15    0.24    0.40
   6  -4  15    0.07    0.40
   6  -3 -11   11.13    0.48
   6  -3 -10   36.78    1.08
   6  -3 -10   40.08    1.14
   6  -3  -9    6.92    0.81
   6  -3  -9    6.78    0.69
   6  -3  -8    3.81    0.68
   6  -3  -8    2.00    0.66
   6  -3  -7    6.62    0.80
   6  -3  -6   62.11    1.80
   6  -3  -6   56.96    1.60
   6  -3  -5   15.41    0.98
   6  -3  -5   13.88    0.94
   6  -3  -4  144.56    2.86
   6  -3  -4  153.85    3.29
   6  -3  -4  157.99    3.13
   6  -3  -4  138.98    3.13
   6  -3  -4  159.97    3.18
   6  -3  -3   43.47    1.69
   6  -3  -3   39.17    1.42
   6  -3  -3   41.96    1.59
   6  -3  -3   41.26    1.67
   6  -3  -3   40.56    1.80
   6  -3  -2   24.00    1.33
   6  -3  -2   23.72    1.32
   6  -3  -2   22.38    1.40
   6  -3  -2   22.60    1.48
   6  -3  -1   25.82    1.39
   6  -3  -1   23.35    1.47
   6  -3  -1   27.02    1.43
   6  -3  -1   23.29    1.25
   6  -3  -1   24.54    1.46
   6  -3  -1   25.80    1.51
   6  -3   0  324.31    5.76
   6  -3   0  296.99    5.53
   6  -3   0  317.88    5.41
   6  -3   0  305.34    5.32
   6  -3   0  321.87    5.63
   6  -3   0  298.87    5.15
   6  -3   0  316.32    5.51
   6  -3   0  333.08    5.68
   6  -3   0  345.30    5.71
   6  -3   1   41.56    1.74
   6  -3   1   29.90    1.30
   6  -3   1   32.79    1.46
   6  -3   1   30.53    1.29
   6  -3   1   39.12    1.62
   6  -3   1   42.26    1.70
   6  -3   1   39.30    1.57
   6  -3   1   37.09    1.49
   6  -3   1   38.18    1.70
   6  -3   1   32.00    1.19
   6  -3   1   37.19    1.61
   6  -3   2  310.33    5.37
   6  -3   2  339.98    5.92
   6  -3   2  322.03    5.46
   6  -3   2  337.00    5.66
   6  -3   2  334.58    5.69
   6  -3   2  330.37    5.34
   6  -3   2  332.57    5.74
   6  -3   2  324.81    5.76
   6  -3   2  328.36    5.73
   6  -3   2  343.24    5.77
   6  -3   2  295.55    5.19
   6  -3   2  348.83    5.79
   6  -3   2  292.50    5.16
   6  -3   2  369.75    5.74
   6  -3   3    7.68    0.77
   6  -3   3    9.18    1.12
   6  -3   3    7.65    0.91
   6  -3   3    6.97    0.77
   6  -3   3    7.29    0.88
   6  -3   3    7.65    0.94
   6  -3   3    6.97    0.95
   6  -3   3    7.50    0.74
   6  -3   3    8.36    1.02
   6  -3   3    9.15    0.98
   6  -3   3    8.90    1.04
   6  -3   3    9.76    0.99
   6  -3   3    7.58    1.18
   6  -3   3    6.77    0.93
   6  -3   3    7.87    0.99
   6  -3   3    6.30    0.86
   6  -3   4  300.48    5.29
   6  -3   4  304.37    5.71
   6  -3   4  305.66    5.59
   6  -3   4  310.81    5.66
   6  -3   4  311.54    5.54
   6  -3   4  304.65    5.20
   6  -3   4  315.79    5.63
   6  -3   4  304.10    5.21
   6  -3   4  300.25    5.39
   6  -3   4  310.35    5.43
   6  -3   4  325.86    5.18
   6  -3   4  306.39    5.27
   6  -3   4  316.13    5.62
   6  -3   4  320.60    5.52
   6  -3   4  333.60    5.35
   6  -3   5    1.78    0.86
   6  -3   5    2.10    0.68
   6  -3   5    2.34    0.88
   6  -3   5    2.04    0.82
   6  -3   5    2.10    0.91
   6  -3   5    2.66    0.83
   6  -3   5    2.47    0.62
   6  -3   5    2.44    0.80
   6  -3   5    2.54    0.83
   6  -3   5    2.27    0.69
   6  -3   5    2.43    0.76
   6  -3   5    2.75    0.88
   6  -3   5    2.46    1.04
   6  -3   5    1.89    0.84
   6  -3   5    3.58    0.82
   6  -3   6   42.89    1.34
   6  -3   6   45.92    1.80
   6  -3   6   43.59    1.79
   6  -3   6   45.45    1.76
   6  -3   6   46.42    1.68
   6  -3   6   44.12    1.69
   6  -3   6   45.95    1.83
   6  -3   6   47.22    1.43
   6  -3   6   51.31    1.84
   6  -3   6   46.33    1.56
   6  -3   6   41.87    1.48
   6  -3   6   49.11    1.73
   6  -3   6   50.08    1.55
   6  -3   6   47.73    1.76
   6  -3   6   46.56    1.80
   6  -3   7  155.91    3.52
   6  -3   7  151.29    3.58
   6  -3   7  160.48    3.64
   6  -3   7  156.53    3.45
   6  -3   7  148.54    3.33
   6  -3   7  163.21    3.35
   6  -3   7  176.85    3.22
   6  -3   7  166.63    3.34
   6  -3   7  167.82    3.49
   6  -3   7  164.59    3.80
   6  -3   7  171.01    3.44
   6  -3   7  165.88    3.14
   6  -3   7  166.21    3.69
   6  -3   8   20.59    0.98
   6  -3   8   20.94    1.27
   6  -3   8   22.33    1.42
   6  -3   8   20.73    1.26
   6  -3   8   22.13    1.18
   6  -3   8   22.08    1.18
   6  -3   8   21.46    1.27
   6  -3   8   21.79    1.31
   6  -3   8   22.75    1.14
   6  -3   9   12.20    1.08
   6  -3   9   13.44    1.39
   6  -3   9   12.61    0.94
   6  -3   9   12.57    1.03
   6  -3   9   12.51    1.08
   6  -3   9   13.33    1.16
   6  -3   9   13.23    0.97
   6  -3  10   72.39    2.17
   6  -3  10   73.92    2.15
   6  -3  10   71.70    2.04
   6  -3  10   72.94    1.94
   6  -3  10   76.31    1.83
   6  -3  10   70.69    2.08
   6  -3  10   70.95    1.84
   6  -3  10   78.51    2.62
   6  -3  11   32.62    1.45
   6  -3  11   31.76    1.35
   6  -3  11   31.23    1.34
   6  -3  11   36.22    1.94
   6  -3  11   31.55    1.45
   6  -3  12   33.71    1.37
   6  -3  12   35.68    1.70
   6  -3  12   32.89    1.37
   6  -3  12   32.54    1.29
   6  -3  12   34.43    1.21
   6  -3  13   90.52    2.13
   6  -3  13   88.70    2.08
   6  -3  13   90.06    2.12
   6  -3  13   88.71    2.32
   6  -3  13   86.06    2.03
   6  -3  14   21.32    0.96
   6  -3  14   20.64    0.89
   6  -3  14   22.82    0.87
   6  -3  14   24.10    1.05
   6  -3  15   64.22    1.42
   6  -3  15   66.87    1.48
   6  -3  16    3.97    0.37
   6  -3  16    4.32    0.38
   6  -2 -11   28.80    0.70
   6  -2 -10   44.54    1.19
   6  -2 -10   53.85    1.35
   6  -2  -9   40.94    1.32
   6  -2  -9   44.08    1.35
   6  -2  -8    7.08    0.77
   6  -2  -8    4.40    0.66
   6  -2  -7   42.76    1.49
   6  -2  -6   17.12    0.94
   6  -2  -6   15.89    1.16
   6  -2  -5   27.37    1.23
   6  -2  -5   28.11    1.21
   6  -2  -4    4.60    0.84
   6  -2  -4    3.50    0.85
   6  -2  -4    4.79    0.74
   6  -2  -4    4.80    0.62
   6  -2  -3   93.15    2.51
   6  -2  -3  101.43    2.46
   6  -2  -3   94.54    2.40
   6  -2  -2   10.80    1.05
   6  -2  -2   10.72    1.06
   6  -2  -2   10.67    1.07
   6  -2  -2   11.71    1.33
   6  -2  -1   60.52    1.96
   6  -2  -1   59.81    1.90
   6  -2  -1   56.00    1.60
   6  -2  -1   57.54    1.63
   6  -2  -1   61.16    1.94
   6  -2  -1   62.65    2.15
   6  -2   0    6.47    0.95
   6  -2   0    6.02    1.06
   6  -2   0    7.51    1.02
   6  -2   0    7.06    1.21
   6  -2   0    7.44    0.80
   6  -2   0    7.16    0.68
   6  -2   0    6.44    0.85
   6  -2   0    7.44    1.10
   6  -2   0    7.24    1.16
   6  -2   1  252.18    4.56
   6  -2   1  251.73    4.59
   6  -2   1  261.69    4.72
   6  -2   1  268.99    4.88
   6  -2   1  260.47    4.84
   6  -2   1  250.09    4.70
   6  -2   1  257.25    4.67
   6  -2   1  274.14    4.78
   6  -2   1  283.78    4.89
   6  -2   1  233.15    4.20
   6  -2   2    8.94    0.93
   6  -2   2    8.81    0.91
   6  -2   2   10.16    0.90
   6  -2   2    8.92    1.09
   6  -2   2    9.27    0.88
   6  -2   2    9.41    1.02
   6  -2   2    7.84    0.90
   6  -2   2    9.45    1.04
   6  -2   2    9.48    0.82
   6  -2   2    9.96    0.96
   6  -2   2    9.18    0.85
   6  -2   2    8.97    1.14
   6  -2   2   10.28    1.15
   6  -2   3  195.49    3.71
   6  -2   3  185.07    3.75
   6  -2   3  173.84    3.41
   6  -2   3  190.16    3.84
   6  -2   3  180.98    3.70
   6  -2   3  184.79    3.57
   6  -2   3  181.51    3.42
   6  -2   3  186.81    3.78
   6  -2   3  183.13    3.63
   6  -2   3  187.71    3.66
   6  -2   3  191.37    3.77
   6  -2   3  184.22    3.49
   6  -2   3  180.34    3.39
   6  -2   3  167.63    3.20
   6  -2   3  198.34    3.79
   6  -2   3  205.31    3.75
   6  -2   4    1.02    0.75
   6  -2   4    0.50    0.76
   6  -2   4    0.61    0.70
   6  -2   4    0.82    0.62
   6  -2   4    0.85    0.81
   6  -2   4    1.08    0.76
   6  -2   4    1.34    0.64
   6  -2   4    1.43    0.78
   6  -2   4    1.21    0.75
   6  -2   4    0.98    0.77
   6  -2   4    1.08    0.79
   6  -2   4    0.86    1.00
   6  -2   4    1.27    0.73
   6  -2   4    0.35    0.96
   6  -2   4    1.28    0.88
   6  -2   5  161.52    3.50
   6  -2   5  163.70    3.23
   6  -2   5  164.93    3.59
   6  -2   5  150.31    2.97
   6  -2   5  164.75    3.51
   6  -2   5  167.87    3.25
   6  -2   5  171.12    3.67
   6  -2   5  170.16    3.62
   6  -2   5  165.52    3.22
   6  -2   5  158.58    3.26
   6  -2   5  176.01    3.54
   6  -2   5  173.08    3.61
   6  -2   5  172.49    3.38
   6  -2   5  177.82    3.26
   6  -2   5  185.62    3.39
   6  -2   6   66.48    1.73
   6  -2   6   66.75    2.08
   6  -2   6   64.49    2.04
   6  -2   6   65.32    1.98
   6  -2   6   64.92    1.99
   6  -2   6   70.69    2.20
   6  -2   6   68.81    1.80
   6  -2   6   73.34    2.04
   6  -2   6   71.93    2.21
   6  -2   6   72.66    1.92
   6  -2   6   61.34    1.76
   6  -2   6   71.08    2.09
   6  -2   6   71.66    2.14
   6  -2   6   69.69    2.06
   6  -2   6   74.32    1.91
   6  -2   7  308.97    5.70
   6  -2   7  310.24    5.65
   6  -2   7  291.20    5.11
   6  -2   7  296.76    5.05
   6  -2   7  312.25    5.60
   6  -2   7  335.61    6.00
   6  -2   7  342.01    5.59
   6  -2   7  331.74    5.30
   6  -2   7  327.94    5.95
   6  -2   7  323.61    5.31
   6  -2   7  324.59    5.52
   6  -2   7  343.14    5.79
   6  -2   7  323.32    5.28
   6  -2   7  328.26    5.53
   6  -2   7  357.56    5.42
   6  -2   8   93.91    2.46
   6  -2   8   89.70    2.39
   6  -2   8   86.67    2.07
   6  -2   8   92.51    2.56
   6  -2   8  100.79    2.75
   6  -2   8   99.49    2.37
   6  -2   8   93.65    2.17
   6  -2   8   96.80    2.76
   6  -2   8   91.98    2.10
   6  -2   8   94.89    2.46
   6  -2   8   96.82    2.40
   6  -2   8   93.81    1.99
   6  -2   8  101.02    2.59
   6  -2   8   97.36    2.25
   6  -2   8  102.83    2.30
   6  -2   8   95.85    2.42
   6  -2   9  226.58    4.04
   6  -2   9  211.82    4.27
   6  -2   9  206.46    3.82
   6  -2   9  215.46    4.51
   6  -2   9  213.84    4.23
   6  -2   9  220.34    4.20
   6  -2   9  217.67    3.70
   6  -2   9  222.49    4.34
   6  -2   9  214.55    3.95
   6  -2   9  232.17    3.96
   6  -2   9  219.00    4.08
   6  -2  10  169.14    3.75
   6  -2  10  159.45    3.13
   6  -2  10  172.74    4.34
   6  -2  10  157.38    3.52
   6  -2  10  159.83    3.45
   6  -2  10  160.53    3.40
   6  -2  10  160.63    3.49
   6  -2  10  159.07    3.21
   6  -2  10  170.44    3.13
   6  -2  10  158.04    3.24
   6  -2  11  110.40    2.74
   6  -2  11   99.23    2.21
   6  -2  11  152.72    4.55
   6  -2  11  105.97    2.73
   6  -2  11  105.65    2.64
   6  -2  11  103.52    2.55
   6  -2  11  105.47    2.43
   6  -2  11  113.23    2.29
   6  -2  11  100.32    2.61
   6  -2  11  107.04    2.44
   6  -2  11  142.00    4.54
   6  -2  12   75.37    2.10
   6  -2  12   77.87    2.68
   6  -2  13    7.12    0.91
   6  -2  13    6.32    0.80
   6  -2  13    6.77    0.80
   6  -2  13    6.54    0.69
   6  -2  13    5.78    0.91
   6  -2  13    6.60    0.80
   6  -2  14  115.29    2.39
   6  -2  14  113.34    2.40
   6  -2  14  115.25    2.28
   6  -2  14  119.39    2.56
   6  -2  14  113.01    2.38
   6  -2  15   17.52    0.84
   6  -2  15   18.75    0.80
   6  -2  15   20.36    0.87
   6  -2  16   53.58    1.12
   6  -2  16   55.68    1.17
   6  -1 -11   34.22    0.73
   6  -1 -10    4.94    0.56
   6  -1 -10    4.86    0.59
   6  -1  -9   51.15    1.44
   6  -1  -9   56.59    1.57
   6  -1  -8    7.03    0.88
   6  -1  -8    6.84    0.78
   6  -1  -8    6.54    0.78
   6  -1  -7    3.07    0.72
   6  -1  -7    3.36    0.76
   6  -1  -6   65.21    1.74
   6  -1  -6   67.69    1.97
   6  -1  -6   70.04    1.98
   6  -1  -5   58.79    1.70
   6  -1  -5   60.24    1.78
   6  -1  -5   57.08    1.89
   6  -1  -4  151.62    3.11
   6  -1  -4  150.31    3.36
   6  -1  -4  151.56    3.12
   6  -1  -4  152.64    3.24
   6  -1  -3    1.96    0.80
   6  -1  -3    1.78    0.79
   6  -1  -3    1.69    0.96
   6  -1  -3    2.47    0.63
   6  -1  -3    2.90    0.90
   6  -1  -2   73.02    1.83
   6  -1  -2   72.91    2.13
   6  -1  -2   74.25    2.24
   6  -1  -2   73.72    2.03
   6  -1  -2   64.77    1.81
   6  -1  -2   67.56    1.94
   6  -1  -1   17.04    1.81
   6  -1  -1   14.58    0.83
   6  -1  -1   15.40    1.12
   6  -1  -1   14.59    1.23
   6  -1  -1   15.32    1.09
   6  -1  -1   13.97    0.86
   6  -1  -1   14.34    1.10
   6  -1  -1   15.51    1.42
   6  -1   0  124.02    4.31
   6  -1   0  117.35    2.85
   6  -1   0  122.06    2.51
   6  -1   0  122.60    2.84
   6  -1   0  118.20    2.87
   6  -1   0  120.01    2.71
   6  -1   0  110.23    2.40
   6  -1   0  117.48    2.70
   6  -1   0  121.58    2.72
   6  -1   0  130.05    3.10
   6  -1   1   16.23    1.18
   6  -1   1   16.88    1.14
   6  -1   1   16.60    1.32
   6  -1   1   16.30    0.99
   6  -1   1   16.61    0.97
   6  -1   1   15.78    1.11
   6  -1   1   17.71    1.90
   6  -1   1   15.95    1.03
   6  -1   1   16.06    0.90
   6  -1   1   16.65    1.05
   6  -1   1   18.35    1.21
   6  -1   1   18.72    1.35
   6  -1   2   50.45    1.71
   6  -1   2   49.51    1.68
   6  -1   2   44.89    1.57
   6  -1   2   45.66    1.59
   6  -1   2   42.93    1.55
   6  -1   2   43.19    1.63
   6  -1   2   44.41    1.54
   6  -1   2   47.23    1.53
   6  -1   2   47.63    1.59
   6  -1   2   42.87    1.53
   6  -1   2   46.78    1.60
   6  -1   2   42.74    1.49
   6  -1   2   43.33    1.41
   6  -1   2   47.99    1.69
   6  -1   2   41.63    1.36
   6  -1   2   48.79    1.77
   6  -1   2   47.90    2.73
   6  -1   3    7.41    1.50
   6  -1   3    5.68    0.79
   6  -1   3    5.84    0.89
   6  -1   3    4.30    0.71
   6  -1   3    4.74    0.82
   6  -1   3    5.45    0.73
   6  -1   3    5.98    0.82
   6  -1   3    5.95    0.87
   6  -1   3    6.83    1.02
   6  -1   3    5.87    0.78
   6  -1   3    6.13    0.82
   6  -1   3    4.63    0.81
   6  -1   3    5.27    0.83
   6  -1   3    5.98    0.78
   6  -1   3    6.37    0.98
   6  -1   3    6.03    0.72
   6  -1   3    6.37    1.04
   6  -1   3    6.41    0.82
   6  -1   3    6.61    1.02
   6  -1   4  192.67    5.39
   6  -1   4  182.36    3.53
   6  -1   4  166.74    3.29
   6  -1   4  172.96    3.57
   6  -1   4  171.64    3.33
   6  -1   4  164.76    3.26
   6  -1   4  184.38    3.73
   6  -1   4  183.40    3.52
   6  -1   4  187.69    3.75
   6  -1   4  192.64    3.60
   6  -1   4  182.11    3.38
   6  -1   4  177.51    3.48
   6  -1   4  186.39    3.64
   6  -1   4  183.31    3.66
   6  -1   4  192.70    3.53
   6  -1   4  201.84    3.66
   6  -1   4  195.61    3.46
   6  -1   5   14.51    1.69
   6  -1   5   14.82    0.96
   6  -1   5   12.67    0.84
   6  -1   5   13.67    0.98
   6  -1   5   13.13    0.79
   6  -1   5   14.11    0.85
   6  -1   5   13.75    1.08
   6  -1   5   13.86    0.93
   6  -1   5   14.28    1.07
   6  -1   5   15.79    1.05
   6  -1   5   12.29    0.77
   6  -1   5   14.92    0.95
   6  -1   5   15.97    1.13
   6  -1   5   14.37    1.03
   6  -1   5   13.19    1.02
   6  -1   5   15.70    1.24
   6  -1   5   16.27    1.09
   6  -1   6  191.47    5.16
   6  -1   6  175.05    3.29
   6  -1   6  157.21    3.08
   6  -1   6  172.47    3.50
   6  -1   6  169.49    3.11
   6  -1   6  169.51    3.49
   6  -1   6  174.50    3.23
   6  -1   6  162.28    3.05
   6  -1   6  154.97    2.98
   6  -1   6  183.70    3.73
   6  -1   6  175.76    3.31
   6  -1   6  185.41    3.49
   6  -1   6  182.18    3.77
   6  -1   6  171.55    3.31
   6  -1   6  164.88    3.03
   6  -1   6  160.14    3.19
   6  -1   6  184.45    3.66
   6  -1   6  191.30    3.41
   6  -1   6  177.26    3.59
   6  -1   6  179.25    3.52
   6  -1   7   71.60    1.83
   6  -1   7   68.77    1.77
   6  -1   7   70.94    2.01
   6  -1   7   73.31    1.76
   6  -1   7   64.93    1.60
   6  -1   7   73.80    2.26
   6  -1   7   70.43    1.82
   6  -1   7   78.00    2.04
   6  -1   7   71.29    2.29
   6  -1   7   72.82    1.70
   6  -1   7   75.88    2.01
   6  -1   7   82.12    2.26
   6  -1   7   69.41    1.84
   6  -1   7   77.70    2.19
   6  -1   7   76.15    2.18
   6  -1   7   79.60    2.04
   6  -1   8  288.37    4.90
   6  -1   8  290.91    5.31
   6  -1   8  291.96    4.99
   6  -1   8  272.66    4.69
   6  -1   8  321.10    5.68
   6  -1   8  319.78    5.26
   6  -1   8  306.62    5.02
   6  -1   8  310.76    5.77
   6  -1   8  305.09    5.33
   6  -1   8  299.86    5.29
   6  -1   8  303.70    4.86
   6  -1   8  316.55    5.58
   6  -1   8  309.47    5.11
   6  -1   8  312.30    5.34
   6  -1   8  332.94    5.20
   6  -1   9   49.62    1.78
   6  -1   9   47.98    1.50
   6  -1   9   52.98    1.88
   6  -1   9   51.83    1.61
   6  -1   9   47.33    1.49
   6  -1   9   49.26    2.05
   6  -1   9   43.50    1.30
   6  -1   9   49.49    1.77
   6  -1   9   48.48    1.69
   6  -1   9   49.98    1.41
   6  -1   9   53.20    1.93
   6  -1   9   48.64    1.61
   6  -1   9   49.90    1.82
   6  -1   9   56.84    1.66
   6  -1  10  113.75    2.47
   6  -1  10  106.61    2.83
   6  -1  10  109.88    2.48
   6  -1  10  112.58    2.80
   6  -1  10  113.21    2.75
   6  -1  10  115.70    2.37
   6  -1  10  114.58    2.89
   6  -1  10  114.84    2.58
   6  -1  10  115.92    2.70
   6  -1  11  117.59    2.81
   6  -1  11  110.92    2.38
   6  -1  11  145.97    3.96
   6  -1  11  118.32    3.09
   6  -1  11  103.41    2.16
   6  -1  11  116.11    2.82
   6  -1  11  111.56    2.75
   6  -1  11  122.76    2.65
   6  -1  11  143.54    4.04
   6  -1  11  119.00    2.91
   6  -1  11  126.85    2.50
   6  -1  11  115.10    2.65
   6  -1  12   46.57    1.71
   6  -1  12   43.96    1.62
   6  -1  12   44.21    1.70
   6  -1  12   46.68    1.59
   6  -1  13   34.50    1.42
   6  -1  13   36.92    1.30
   6  -1  13   32.35    1.05
   6  -1  13   32.59    1.40
   6  -1  13   35.53    1.35
   6  -1  13   32.69    1.22
   6  -1  13   34.89    1.52
   6  -1  14   15.63    0.98
   6  -1  14   15.19    0.95
   6  -1  14   17.45    0.89
   6  -1  14   14.10    0.74
   6  -1  14   16.13    0.98
   6  -1  14   14.43    0.95
   6  -1  15   12.87    0.80
   6  -1  15   13.99    0.78
   6  -1  15   14.03    0.81
   6  -1  16   15.29    0.68
   6  -1  16   15.38    0.70
   6   0 -10   13.58    0.65
   6   0 -10   15.00    0.79
   6   0  -9    4.00    0.66
   6   0  -9    3.82    0.72
   6   0  -9    4.17    0.67
   6   0  -8    9.92    0.89
   6   0  -8   11.07    0.95
   6   0  -8   11.19    0.89
   6   0  -7   65.22    1.85
   6   0  -7   65.04    1.87
   6   0  -7   62.20    1.89
   6   0  -6    7.99    0.98
   6   0  -6    6.27    0.82
   6   0  -6    5.86    0.71
   6   0  -5   46.63    1.63
   6   0  -5   45.60    1.48
   6   0  -4   54.62    1.88
   6   0  -4   52.38    1.80
   6   0  -4   54.00    1.66
   6   0  -3   25.89    1.23
   6   0  -3   23.03    1.30
   6   0  -3   25.00    1.35
   6   0  -3   22.40    0.96
   6   0  -3   22.85    1.36
   6   0  -2  134.79    2.94
   6   0  -2  130.36    2.82
   6   0  -2  123.65    2.89
   6   0  -2  130.88    2.98
   6   0  -2  117.24    2.62
   6   0  -2  127.18    4.27
   6   0  -2  124.74    2.53
   6   0  -1   83.32    3.51
   6   0  -1   82.06    1.96
   6   0  -1   88.28    2.29
   6   0  -1   88.31    2.33
   6   0  -1   85.46    2.16
   6   0  -1   71.99    1.88
   6   0  -1   76.08    2.02
   6   0   0    0.36    0.66
   6   0   0    0.51    1.20
   6   0   0    0.05    1.20
   6   0   0    0.21    0.53
   6   0   0   -0.16    0.71
   6   0   0    0.74    0.88
   6   0   0    0.61    0.77
   6   0   0    1.12    0.50
   6   0   0    0.69    1.08
   6   0   0    0.70    0.81
   6   0   0    0.72    0.79
   6   0   1  438.79    7.09
   6   0   1  439.12    7.07
   6   0   1  441.20    7.01
   6   0   1  428.76    6.72
   6   0   1  432.86    6.91
   6   0   1  423.84    6.92
   6   0   1  417.77    6.75
   6   0   1  432.14    6.89
   6   0   1  402.12    6.53
   6   0   1  463.22    7.30
   6   0   1  476.98    9.62
   6   0   1  433.78    6.79
   6   0   2    0.91    1.28
   6   0   2    0.75    0.69
   6   0   2    0.73    0.83
   6   0   2    0.61    0.59
   6   0   2    0.86    0.83
   6   0   2    0.44    0.69
   6   0   2    0.23    0.65
   6   0   2    0.43    1.03
   6   0   2    0.04    0.63
   6   0   2    0.52    0.62
   6   0   2    0.17    0.73
   6   0   2    0.39    0.67
   6   0   2    0.01    0.80
   6   0   2    0.44    0.65
   6   0   2    0.49    0.70
   6   0   2   -0.18    0.81
   6   0   2    0.41    0.97
   6   0   3  229.91    6.02
   6   0   3  206.81    3.79
   6   0   3  193.25    3.76
   6   0   3  178.30    3.61
   6   0   3  189.98    3.65
   6   0   3  185.00    3.58
   6   0   3  190.41    3.78
   6   0   3  195.64    3.63
   6   0   3  196.90    3.82
   6   0   3  194.60    3.77
   6   0   3  198.26    3.63
   6   0   3  182.92    3.46
   6   0   3  190.80    3.62
   6   0   3  192.59    3.70
   6   0   3  196.09    3.71
   6   0   3  181.57    3.36
   6   0   3  200.78    3.59
   6   0   3  194.11    3.54
   6   0   3  214.07    3.93
   6   0   4   34.74    2.37
   6   0   4   33.70    1.28
   6   0   4   29.77    1.23
   6   0   4   34.04    1.34
   6   0   4   31.60    1.30
   6   0   4   31.97    1.26
   6   0   4   30.42    1.25
   6   0   4   30.78    1.22
   6   0   4   31.09    1.32
   6   0   4   31.70    1.38
   6   0   4   32.12    1.38
   6   0   4   32.07    1.40
   6   0   4   34.23    1.31
   6   0   4   31.30    1.25
   6   0   4   30.17    1.18
   6   0   4   33.63    1.38
   6   0   4   32.20    1.32
   6   0   4   29.05    1.06
   6   0   4   33.06    1.41
   6   0   4   33.83    1.34
   6   0   4   35.30    1.47
   6   0   5   18.18    1.87
   6   0   5   16.88    0.99
   6   0   5   15.91    0.98
   6   0   5   14.71    0.92
   6   0   5   16.48    0.99
   6   0   5   16.10    0.94
   6   0   5   16.47    0.92
   6   0   5   18.38    1.15
   6   0   5   15.65    0.99
   6   0   5   16.26    1.10
   6   0   5   16.57    1.03
   6   0   5   15.06    0.92
   6   0   5   14.93    0.90
   6   0   5   17.66    1.12
   6   0   5   16.44    1.00
   6   0   5   16.93    1.23
   6   0   5   15.98    1.13
   6   0   5   18.30    1.11
   6   0   6    3.22    0.71
   6   0   6    2.85    1.24
   6   0   6    4.47    0.70
   6   0   6    4.05    0.69
   6   0   6    3.76    0.61
   6   0   6    3.65    0.67
   6   0   6    3.55    0.63
   6   0   6    3.25    0.90
   6   0   6    3.90    0.84
   6   0   6    3.47    0.79
   6   0   6    3.49    0.79
   6   0   6    3.37    0.70
   6   0   6    3.89    0.68
   6   0   6    2.95    0.65
   6   0   6    3.72    0.88
   6   0   6    3.64    0.71
   6   0   6    3.52    1.09
   6   0   6    3.49    0.86
   6   0   7  249.13    6.05
   6   0   7  221.64    3.91
   6   0   7  210.98    3.95
   6   0   7  221.79    3.89
   6   0   7  216.88    3.87
   6   0   7  209.57    3.77
   6   0   7  234.16    4.42
   6   0   7  221.88    3.99
   6   0   7  238.32    4.17
   6   0   7  226.16    4.48
   6   0   7  221.16    4.11
   6   0   7  225.89    3.87
   6   0   7  237.96    4.47
   6   0   7  222.85    3.98
   6   0   7  230.81    4.25
   6   0   7  242.36    4.17
   6   0   7  228.65    4.26
   6   0   8    0.73    0.58
   6   0   8    1.07    0.64
   6   0   8    1.21    0.52
   6   0   8    1.05    0.58
   6   0   8    1.48    0.91
   6   0   8    1.85    0.90
   6   0   8    0.74    0.70
   6   0   8    1.72    0.72
   6   0   8    1.28    0.64
   6   0   8    1.69    0.71
   6   0   8    1.35    0.82
   6   0   8    1.68    0.89
   6   0   8    1.47    0.78
   6   0   8    0.80    0.67
   6   0   8    1.01    1.14
   6   0   9  110.98    2.29
   6   0   9  116.57    2.58
   6   0   9  112.62    2.31
   6   0   9  119.02    2.83
   6   0   9  118.20    2.79
   6   0   9  122.11    2.45
   6   0   9  127.47    2.72
   6   0   9  124.10    2.78
   6   0   9  122.29    2.87
   6   0   9  124.53    3.07
   6   0   9  122.01    2.65
   6   0   9  125.21    2.95
   6   0   9  121.66    2.61
   6   0   9  116.98    2.50
   6   0   9  124.06    3.15
   6   0  10    5.81    0.73
   6   0  10    5.94    0.77
   6   0  10    6.93    0.95
   6   0  10    6.41    1.06
   6   0  10    6.27    0.75
   6   0  10    6.45    1.07
   6   0  10    6.66    0.92
   6   0  10    5.67    1.17
   6   0  10    7.37    0.94
   6   0  11  150.02    3.21
   6   0  11  165.57    3.84
   6   0  11  140.37    2.97
   6   0  11  150.77    3.39
   6   0  11  144.03    3.21
   6   0  11  146.98    2.84
   6   0  11  145.90    3.05
   6   0  11  128.55    2.88
   6   0  11  157.26    2.97
   6   0  11  147.04    3.16
   6   0  12   53.82    1.69
   6   0  12   64.16    2.17
   6   0  12   52.59    1.37
   6   0  12   55.16    1.64
   6   0  12   57.42    2.00
   6   0  12   55.86    1.84
   6   0  12   61.53    1.61
   6   0  12   59.44    1.84
   6   0  12   58.68    1.77
   6   0  13   38.36    1.41
   6   0  13   36.52    1.14
   6   0  13   35.51    1.24
   6   0  13   36.89    1.51
   6   0  14   73.47    1.97
   6   0  14   86.84    1.90
   6   0  14   76.68    2.10
   6   0  14   81.47    1.99
   6   0  14   84.28    2.07
   6   0  15   10.85    0.80
   6   0  15   14.13    0.76
   6   0  15   12.86    0.76
   6   0  15   13.00    0.87
   6   0  16   24.34    0.90
   6   0  16   29.40    0.96
   6   0  17    4.72    0.34
   6   0  17    3.50    0.31
   6   1 -10    6.28    0.61
   6   1 -10    5.15    0.66
   6   1 -10    5.34    0.47
   6   1  -9   10.16    0.81
   6   1  -9    9.55    0.88
   6   1  -9    8.40    0.68
   6   1  -8   16.01    1.11
   6   1  -8   16.50    0.93
   6   1  -7   73.95    2.15
   6   1  -7   71.94    1.90
   6   1  -6   31.20    1.53
   6   1  -6   32.75    1.40
   6   1  -6   27.87    1.15
   6   1  -5   88.74    2.11
   6   1  -5   84.92    2.17
   6   1  -4    4.23    0.78
   6   1  -4    3.51    0.95
   6   1  -4    4.31    0.84
   6   1  -4    4.30    1.01
   6   1  -3   52.68    1.73
   6   1  -3   52.97    1.65
   6   1  -3   50.63    1.85
   6   1  -3   46.17    2.54
   6   1  -3   51.25    1.37
   6   1  -3   51.69    1.77
   6   1  -2   29.81    1.39
   6   1  -2   32.38    1.42
   6   1  -2   30.38    1.32
   6   1  -2   27.15    1.48
   6   1  -2   25.57    2.07
   6   1  -2   26.55    1.05
   6   1  -2   29.55    1.39
   6   1  -1   42.76    1.59
   6   1  -1   39.73    1.54
   6   1  -1   40.69    1.48
   6   1  -1   43.71    1.67
   6   1  -1   42.30    2.66
   6   1  -1   40.54    1.30
   6   1  -1   40.60    1.54
   6   1   0   70.29    2.01
   6   1   0   62.38    1.89
   6   1   0   66.07    1.85
   6   1   0   65.27    2.17
   6   1   0   67.37    1.63
   6   1   0   75.09    3.47
   6   1   0   67.80    1.72
   6   1   0   68.30    1.86
   6   1   0   68.48    2.25
   6   1   1   10.52    1.00
   6   1   1    8.65    0.87
   6   1   1   11.39    1.31
   6   1   1   12.62    0.81
   6   1   1   10.61    0.94
   6   1   1   13.45    1.88
   6   1   1   13.10    0.89
   6   1   1    9.30    0.86
   6   1   1    9.40    0.80
   6   1   1   11.39    0.96
   6   1   1    9.99    1.23
   6   1   2  151.22    3.05
   6   1   2  142.96    2.97
   6   1   2  149.59    3.09
   6   1   2  145.85    3.04
   6   1   2  143.10    2.78
   6   1   2  140.46    2.94
   6   1   2  142.60    2.89
   6   1   2  134.49    2.81
   6   1   2  137.58    2.88
   6   1   2  121.49    2.69
   6   1   2  129.95    2.71
   6   1   2  137.51    2.75
   6   1   2  146.34    3.19
   6   1   2  156.04    5.05
   6   1   2  143.69    2.80
   6   1   2  147.15    2.89
   6   1   3    6.67    0.79
   6   1   3    8.47    1.71
   6   1   3    7.47    0.79
   6   1   3    5.61    0.86
   6   1   3    5.67    0.75
   6   1   3    6.48    0.93
   6   1   3    6.15    0.80
   6   1   3    6.51    1.10
   6   1   3    6.43    0.76
   6   1   3    6.49    0.73
   6   1   3    5.65    0.83
   6   1   3    5.69    0.78
   6   1   3    5.80    0.78
   6   1   3    5.63    0.73
   6   1   3    6.01    0.76
   6   1   3    5.70    0.91
   6   1   3    6.89    1.04
   6   1   3    6.86    0.89
   6   1   4  329.64    7.75
   6   1   4  299.17    4.97
   6   1   4  322.39    5.11
   6   1   4  308.97    5.14
   6   1   4  294.81    5.08
   6   1   4  298.84    5.06
   6   1   4  295.67    5.06
   6   1   4  297.09    5.25
   6   1   4  302.46    5.20
   6   1   4  304.24    5.05
   6   1   4  305.88    5.27
   6   1   4  312.70    5.07
   6   1   4  302.10    5.06
   6   1   4  288.98    4.98
   6   1   4  305.48    5.20
   6   1   4  298.33    5.10
   6   1   4  276.32    4.74
   6   1   4  282.54    5.04
   6   1   4  313.83    5.14
   6   1   4  314.30    5.25
   6   1   5    2.32    0.70
   6   1   5    2.88    1.33
   6   1   5    1.62    0.60
   6   1   5    1.72    0.71
   6   1   5    2.00    0.71
   6   1   5    2.52    0.72
   6   1   5    1.98    0.67
   6   1   5    2.41    0.70
   6   1   5    2.36    0.73
   6   1   5    1.76    0.87
   6   1   5    2.48    0.70
   6   1   5    2.79    0.74
   6   1   5    2.06    0.71
   6   1   5    2.49    0.64
   6   1   5    2.63    0.78
   6   1   5    2.16    0.62
   6   1   5    2.09    1.01
   6   1   5    2.27    0.87
   6   1   6  405.92    8.50
   6   1   6  355.76    5.62
   6   1   6  337.12    5.65
   6   1   6  342.08    5.65
   6   1   6  334.31    5.58
   6   1   6  337.97    5.59
   6   1   6  350.85    5.74
   6   1   6  355.52    6.07
   6   1   6  356.51    6.03
   6   1   6  361.55    5.78
   6   1   6  309.28    5.49
   6   1   6  350.72    5.66
   6   1   6  365.82    6.09
   6   1   6  347.96    5.79
   6   1   6  386.73    5.93
   6   1   6  371.34    5.97
   6   1   6  356.50    5.79
   6   1   7   86.77    3.54
   6   1   7   79.71    1.91
   6   1   7   83.64    1.99
   6   1   7   81.84    2.08
   6   1   7   81.94    1.94
   6   1   7   80.16    1.90
   6   1   7   82.10    2.25
   6   1   7   76.18    1.95
   6   1   7   84.93    2.09
   6   1   7   83.77    2.32
   6   1   7   82.63    1.98
   6   1   7   89.71    2.42
   6   1   7   78.72    2.02
   6   1   7   81.02    2.06
   6   1   7   88.74    2.25
   6   1   7   85.27    2.35
   6   1   8   93.26    3.55
   6   1   8   89.93    2.02
   6   1   8   91.40    2.26
   6   1   8   88.82    2.01
   6   1   8   96.25    2.44
   6   1   8   95.61    2.25
   6   1   8   92.85    2.13
   6   1   8   93.65    2.54
   6   1   8   90.17    2.30
   6   1   8   95.38    2.14
   6   1   8   98.36    2.63
   6   1   8   93.63    2.27
   6   1   8   94.20    2.55
   6   1   8  104.43    2.45
   6   1   9   38.72    2.26
   6   1   9   39.88    1.21
   6   1   9   41.74    1.49
   6   1   9   39.55    1.25
   6   1   9   43.56    1.39
   6   1   9   40.15    1.59
   6   1   9   44.89    1.61
   6   1   9   43.45    1.44
   6   1   9   43.67    1.36
   6   1   9   47.24    1.82
   6   1   9   43.75    1.56
   6   1   9   49.56    1.69
   6   1   9   43.52    1.85
   6   1  10  128.60    2.86
   6   1  10  127.79    3.06
   6   1  10  136.01    2.71
   6   1  10  129.81    2.74
   6   1  10  140.60    2.97
   6   1  10  137.54    3.14
   6   1  11   71.59    1.98
   6   1  11   71.53    2.16
   6   1  11   74.42    2.40
   6   1  11   75.56    1.86
   6   1  11   74.38    2.05
   6   1  11   81.33    2.37
   6   1  11   64.37    1.88
   6   1  11   75.14    2.09
   6   1  11   82.62    2.04
   6   1  11   75.00    2.23
   6   1  12   49.75    1.61
   6   1  12   50.75    1.80
   6   1  12   58.02    2.20
   6   1  12   55.25    1.55
   6   1  12   53.23    1.75
   6   1  12   47.27    1.59
   6   1  12   57.53    1.61
   6   1  12   54.92    1.87
   6   1  12   53.15    1.62
   6   1  12   61.21    1.95
   6   1  13   24.36    1.12
   6   1  13   31.58    1.33
   6   1  13   23.13    1.15
   6   1  13   29.69    1.07
   6   1  14    5.19    0.56
   6   1  14    4.79    0.77
   6   1  14    5.81    0.70
   6   1  14    5.10    0.86
   6   1  14    5.59    0.89
   6   1  14    3.88    0.55
   6   1  15   60.78    1.35
   6   1  15   66.40    1.56
   6   1  15   64.15    1.78
   6   1  15   64.55    1.66
   6   1  15   70.83    1.58
   6   1  15   55.87    1.61
   6   1  16   10.59    0.73
   6   1  16   10.02    0.57
   6   1  16    8.42    0.66
   6   1  17   27.44    0.79
   6   2 -11    0.49    0.38
   6   2 -10   30.12    1.04
   6   2 -10   29.29    1.11
   6   2  -9   29.99    1.17
   6   2  -9   30.99    1.30
   6   2  -9   27.48    0.91
   6   2  -8   54.42    1.79
   6   2  -8   51.54    1.42
   6   2  -7   69.88    2.19
   6   2  -6  158.55    3.58
   6   2  -6  151.96    3.07
   6   2  -5    4.74    0.70
   6   2  -5    5.11    0.94
   6   2  -4   53.81    1.63
   6   2  -4   59.51    2.07
   6   2  -4   51.34    1.62
   6   2  -4   58.27    1.80
   6   2  -3   86.52    2.18
   6   2  -3   83.95    2.13
   6   2  -3   85.36    2.45
   6   2  -3   82.09    3.42
   6   2  -3   84.29    1.82
   6   2  -3   91.18    2.26
   6   2  -2    6.03    0.89
   6   2  -2    5.53    0.84
   6   2  -2    7.32    1.07
   6   2  -2    9.09    1.58
   6   2  -2    7.98    0.69
   6   2  -2    6.31    1.00
   6   2  -1  129.27    2.85
   6   2  -1  127.30    2.76
   6   2  -1  131.07    3.07
   6   2  -1  130.77    2.54
   6   2  -1  130.86    2.73
   6   2  -1  129.87    2.78
   6   2   0   49.38    1.65
   6   2   0   46.23    1.60
   6   2   0   50.34    1.59
   6   2   0   49.45    1.95
   6   2   0   45.27    1.30
   6   2   0   52.61    1.81
   6   2   0   55.63    3.10
   6   2   0   50.95    1.44
   6   2   0   53.00    1.60
   6   2   0   51.39    1.62
   6   2   0   48.75    1.95
   6   2   1  230.88    4.10
   6   2   1  215.64    4.02
   6   2   1  229.99    4.20
   6   2   1  214.18    3.73
   6   2   1  220.08    3.96
   6   2   1  245.92    6.56
   6   2   1  219.58    3.79
   6   2   1  233.99    4.05
   6   2   1  219.64    3.89
   6   2   1  225.88    4.43
   6   2   2    5.45    0.88
   6   2   2    5.08    0.73
   6   2   2    5.48    0.98
   6   2   2    6.14    1.19
   6   2   2    5.15    0.66
   6   2   2    5.51    0.78
   6   2   2    5.24    0.71
   6   2   2    5.13    0.83
   6   2   2    4.44    0.80
   6   2   2    5.50    0.82
   6   2   2    5.06    1.03
   6   2   2    5.28    0.74
   6   2   2    7.40    1.67
   6   2   2    6.61    0.82
   6   2   3  354.42    8.20
   6   2   3  334.20    5.34
   6   2   3  350.56    5.59
   6   2   3  342.25    5.54
   6   2   3  310.01    5.41
   6   2   3  336.40    5.59
   6   2   3  321.95    5.45
   6   2   3  334.87    5.60
   6   2   3  338.45    5.53
   6   2   3  339.31    5.37
   6   2   3  327.37    5.59
   6   2   3  326.56    5.41
   6   2   3  322.53    5.42
   6   2   3  323.01    5.41
   6   2   3  316.61    5.25
   6   2   3  319.02    5.34
   6   2   3  348.04    5.72
   6   2   4  138.23    4.78
   6   2   4  134.04    2.68
   6   2   4  143.29    2.87
   6   2   4  139.13    2.84
   6   2   4  123.48    2.67
   6   2   4  138.47    2.86
   6   2   4  137.14    2.87
   6   2   4  135.76    2.91
   6   2   4  134.92    2.90
   6   2   4  136.55    2.86
   6   2   4  127.72    2.85
   6   2   4  135.78    2.73
   6   2   4  131.81    2.87
   6   2   4  140.01    2.93
   6   2   4  131.93    2.70
   6   2   4  135.83    2.85
   6   2   4  129.94    2.71
   6   2   4  138.58    2.86
   6   2   4  133.86    2.92
   6   2   5   18.83    2.03
   6   2   5   19.06    0.98
   6   2   5   19.80    1.03
   6   2   5   19.06    1.04
   6   2   5   18.94    1.10
   6   2   5   19.50    1.07
   6   2   5   18.37    1.06
   6   2   5   16.73    1.19
   6   2   5   18.98    1.09
   6   2   5   18.15    1.03
   6   2   5   19.15    1.01
   6   2   5   17.32    1.02
   6   2   5   18.68    1.10
   6   2   5   17.60    0.94
   6   2   5   18.51    1.10
   6   2   5   17.99    0.93
   6   2   5   19.18    1.26
   6   2   5   19.65    1.18
   6   2   6  185.47    5.53
   6   2   6  170.05    3.17
   6   2   6  181.08    3.35
   6   2   6  176.95    3.36
   6   2   6  173.43    3.27
   6   2   6  175.02    3.28
   6   2   6  173.04    3.27
   6   2   6  179.00    3.56
   6   2   6  168.80    3.31
   6   2   6  172.75    3.49
   6   2   6  175.10    3.30
   6   2   6  186.88    3.56
   6   2   6  151.03    3.07
   6   2   6  178.81    3.38
   6   2   6  181.61    3.61
   6   2   6  156.61    3.03
   6   2   6  166.80    3.23
   6   2   6  175.97    3.38
   6   2   6  186.66    3.58
   6   2   7  159.12    5.04
   6   2   7  137.75    2.70
   6   2   7  142.97    2.86
   6   2   7  138.07    2.77
   6   2   7  157.11    3.16
   6   2   7  145.94    3.13
   6   2   7  139.55    2.82
   6   2   7  140.35    3.04
   6   2   7  142.54    2.89
   6   2   7  141.82    2.87
   6   2   7  149.09    3.26
   6   2   7  130.20    2.84
   6   2   7  128.55    2.63
   6   2   7  143.73    3.18
   6   2   8   42.06    2.55
   6   2   8   34.37    1.16
   6   2   8   34.37    1.29
   6   2   8   35.28    1.22
   6   2   8   40.25    1.62
   6   2   8   36.31    1.42
   6   2   8   38.03    1.37
   6   2   8   34.92    1.22
   6   2   8   37.54    1.51
   6   2   8   36.92    1.35
   6   2   8   33.01    1.24
   6   2   8   36.52    1.44
   6   2   8   35.91    1.71
   6   2   9   65.04    3.00
   6   2   9   65.05    1.60
   6   2   9   70.40    2.00
   6   2   9   72.26    1.74
   6   2   9   72.55    2.01
   6   2   9   68.86    1.87
   6   2   9   71.70    1.79
   6   2   9   75.60    2.18
   6   2   9   72.18    1.84
   6   2   9   63.16    1.99
   6   2   9   72.61    2.03
   6   2   9   79.21    2.17
   6   2   9   72.96    2.30
   6   2  10   42.97    1.57
   6   2  10   43.19    1.33
   6   2  10   46.87    1.45
   6   2  10   40.94    1.67
   6   2  10   38.78    1.45
   6   2  10   46.25    1.66
   6   2  10   53.72    1.76
   6   2  10   47.43    1.90
   6   2  11  117.11    2.60
   6   2  11  119.41    2.87
   6   2  11  117.80    2.67
   6   2  11  110.31    2.85
   6   2  11  116.19    2.45
   6   2  11  101.59    2.52
   6   2  11  122.51    2.77
   6   2  11  132.54    2.76
   6   2  11  120.63    2.90
   6   2  12   78.54    2.12
   6   2  12   68.72    1.93
   6   2  12   68.63    2.15
   6   2  12   74.80    1.83
   6   2  12   62.89    1.90
   6   2  12   74.18    2.09
   6   2  12   80.35    1.98
   6   2  12   76.75    2.23
   6   2  13   63.76    1.53
   6   2  13   61.35    1.76
   6   2  14   55.63    1.51
   6   2  14   49.89    1.23
   6   2  14   52.95    1.61
   6   2  14   44.40    1.48
   6   2  14   41.29    1.20
   6   2  14   59.26    1.70
   6   2  14   41.07    1.54
   6   2  15   53.36    1.25
   6   2  15   53.52    1.55
   6   2  16   64.69    1.64
   6   2  16   66.82    1.40
   6   2  17   19.82    0.73
   6   3 -11   39.46    0.97
   6   3 -10    3.41    0.53
   6   3 -10    3.68    0.68
   6   3  -9   41.71    1.50
   6   3  -8    0.89    0.56
   6   3  -8    1.65    0.93
   6   3  -7   36.43    1.71
   6   3  -6   36.66    1.34
   6   3  -6   37.60    1.92
   6   3  -5   99.18    2.31
   6   3  -4  165.56    3.18
   6   3  -4  156.92    3.65
   6   3  -3   28.57    1.60
   6   3  -3   27.86    1.19
   6   3  -3   28.11    1.25
   6   3  -3   34.79    2.35
   6   3  -3   32.88    1.39
   6   3  -2  127.22    3.05
   6   3  -2  127.99    2.68
   6   3  -2  123.87    2.69
   6   3  -2  123.97    4.54
   6   3  -2  122.32    2.38
   6   3  -2  116.00    2.59
   6   3  -2  133.69    2.76
   6   3  -1   95.52    2.57
   6   3  -1   92.22    2.24
   6   3  -1   92.37    2.25
   6   3  -1   97.88    2.28
   6   3  -1  100.04    4.09
   6   3  -1   94.43    2.02
   6   3  -1   96.61    2.28
   6   3   0  145.15    5.01
   6   3   0  140.39    2.72
   6   3   0  137.29    2.98
   6   3   0  156.44    3.03
   6   3   0  147.89    3.25
   6   3   0  150.61    3.22
   6   3   0  145.28    2.94
   6   3   0  134.94    2.75
   6   3   0  144.08    2.91
   6   3   0  140.23    3.32
   6   3   1   74.41    3.57
   6   3   1   67.15    1.66
   6   3   1   73.69    1.92
   6   3   1   64.69    1.82
   6   3   1   62.63    2.00
   6   3   1   68.58    2.11
   6   3   1   54.90    1.66
   6   3   1   64.21    1.77
   6   3   1   62.76    1.59
   6   3   1   66.69    1.78
   6   3   1   65.47    2.16
   6   3   2  273.19    7.07
   6   3   2  248.72    4.14
   6   3   2  267.43    4.49
   6   3   2  265.98    4.40
   6   3   2  234.54    4.26
   6   3   2  259.38    4.57
   6   3   2  223.08    4.22
   6   3   2  262.33    4.52
   6   3   2  243.42    4.12
   6   3   2  229.81    4.10
   6   3   2  251.58    4.30
   6   3   2  248.41    4.21
   6   3   2  244.50    4.57
   6   3   2  224.55    4.00
   6   3   3   37.93    1.12
   6   3   3   44.09    2.87
   6   3   3   42.50    1.32
   6   3   3   47.59    1.56
   6   3   3   41.66    1.45
   6   3   3   35.40    1.29
   6   3   3   41.37    1.55
   6   3   3   39.61    1.52
   6   3   3   41.73    1.63
   6   3   3   41.95    1.32
   6   3   3   39.32    1.36
   6   3   3   37.96    1.29
   6   3   3   41.52    1.35
   6   3   3   41.18    1.43
   6   3   3   43.90    1.64
   6   3   4  338.94    8.07
   6   3   4  313.20    5.03
   6   3   4  324.39    5.33
   6   3   4  326.32    5.24
   6   3   4  318.74    5.26
   6   3   4  319.15    5.36
   6   3   4  309.14    5.35
   6   3   4  301.65    5.26
   6   3   4  318.33    5.23
   6   3   4  306.65    5.08
   6   3   4  297.70    5.05
   6   3   4  319.71    5.42
   6   3   4  295.19    5.15
   6   3   4  291.24    5.00
   6   3   4  288.89    4.99
   6   3   4  316.64    5.23
   6   3   4  324.47    5.35
   6   3   5   26.66    2.32
   6   3   5   23.71    1.04
   6   3   5   25.11    1.16
   6   3   5   21.03    1.19
   6   3   5   23.16    1.10
   6   3   5   23.88    1.17
   6   3   5   21.51    1.17
   6   3   5   21.98    1.35
   6   3   5   24.34    1.15
   6   3   5   23.70    1.08
   6   3   5   23.67    1.14
   6   3   5   22.48    1.11
   6   3   5   23.36    1.27
   6   3   5   20.94    1.00
   6   3   5   23.09    1.16
   6   3   5   21.90    1.07
   6   3   5   22.18    1.21
   6   3   5   25.40    1.37
   6   3   6   10.94    1.73
   6   3   6   10.53    0.77
   6   3   6   10.85    0.88
   6   3   6    9.35    0.92
   6   3   6    9.63    0.84
   6   3   6    9.92    0.91
   6   3   6   11.74    0.93
   6   3   6   10.02    0.87
   6   3   6   11.25    1.13
   6   3   6   10.33    0.82
   6   3   6    9.80    0.84
   6   3   6    9.99    0.85
   6   3   6   10.18    0.99
   6   3   6    8.62    0.71
   6   3   6   10.18    0.97
   6   3   6    9.85    0.90
   6   3   6    9.47    0.85
   6   3   6    9.61    0.96
   6   3   6    9.61    1.20
   6   3   7  103.47    4.11
   6   3   7   86.40    2.01
   6   3   7   95.76    2.22
   6   3   7   93.16    2.24
   6   3   7   93.57    2.15
   6   3   7  104.14    2.53
   6   3   7   89.92    2.11
   6   3   7   90.87    2.17
   6   3   7   89.78    2.24
   6   3   7   91.04    2.29
   6   3   7   95.31    2.29
   6   3   7   92.78    2.51
   6   3   7   85.08    2.20
   6   3   7   87.76    2.07
   6   3   7  101.26    2.58
   6   3   8   41.96    2.69
   6   3   8   34.40    1.17
   6   3   8   36.85    1.30
   6   3   8   40.46    1.42
   6   3   8   38.95    1.31
   6   3   8   41.32    1.71
   6   3   8   38.38    1.46
   6   3   8   36.60    1.37
   6   3   8   37.33    1.25
   6   3   8   42.49    1.47
   6   3   8   35.56    1.33
   6   3   8   38.82    1.51
   6   3   8   37.03    1.32
   6   3   8   41.51    1.84
   6   3   9   25.17    1.63
   6   3   9   24.68    1.07
   6   3   9   23.38    1.21
   6   3   9   27.11    1.49
   6   3   9   25.12    1.14
   6   3   9   22.12    0.97
   6   3   9   26.01    1.18
   6   3   9   24.54    1.19
   6   3   9   24.85    1.32
   6   3  10  194.89    3.85
   6   3  10  195.42    3.52
   6   3  10  197.41    3.59
   6   3  10  219.04    4.00
   6   3  10  190.04    3.65
   6   3  10  173.38    3.62
   6   3  10  197.84    3.88
   6   3  10  206.38    4.13
   6   3  11  106.33    2.59
   6   3  11  103.66    2.79
   6   3  11  110.69    2.38
   6   3  11  117.80    2.65
   6   3  11   95.77    2.48
   6   3  11  113.28    2.72
   6   3  11  123.80    2.72
   6   3  11  115.80    2.91
   6   3  12   17.38    1.08
   6   3  12   17.36    1.24
   6   3  12   18.95    1.00
   6   3  12   19.12    1.04
   6   3  12   15.96    1.07
   6   3  12   19.38    1.27
   6   3  12   19.66    1.13
   6   3  12   19.59    1.43
   6   3  13   47.69    1.43
   6   3  13   48.16    1.33
   6   3  13   44.16    1.50
   6   3  14   38.64    1.09
   6   3  14   39.46    1.45
   6   3  14   34.38    1.32
   6   3  14   32.62    1.07
   6   3  14   45.29    1.55
   6   3  14   28.35    1.36
   6   3  15   23.72    1.14
   6   3  15   21.34    1.04
   6   3  16   62.75    1.35
   6   3  16   62.01    1.63
   6   3  16   59.75    1.51
   6   3  17    6.13    0.51
   6   4 -11    0.22    0.43
   6   4 -10   56.26    1.36
   6   4 -10   50.99    1.21
   6   4  -9    0.81    0.78
   6   4  -8   83.42    2.32
   6   4  -7   36.06    1.85
   6   4  -7   37.36    1.18
   6   4  -6  109.81    3.45
   6   4  -6   90.29    2.06
   6   4  -5   32.19    2.18
   6   4  -5   30.37    1.25
   6   4  -4    5.89    0.88
   6   4  -3  178.42    3.92
   6   4  -3  176.18    5.36
   6   4  -3  188.32    3.44
   6   4  -3  172.14    3.27
   6   4  -2   21.87    1.40
   6   4  -2   20.89    1.02
   6   4  -2   21.81    1.19
   6   4  -2   23.21    2.15
   6   4  -1   48.41    2.94
   6   4  -1   47.09    1.55
   6   4  -1   52.86    1.54
   6   4  -1   47.14    1.94
   6   4  -1   47.09    1.84
   6   4  -1   49.73    1.57
   6   4  -1   45.62    1.44
   6   4  -1   51.82    1.61
   6   4   0   99.12    4.18
   6   4   0   93.51    2.02
   6   4   0   97.65    2.34
   6   4   0   94.61    2.21
   6   4   0   96.72    2.52
   6   4   0   94.52    2.53
   6   4   0   97.97    2.52
   6   4   0   93.68    2.23
   6   4   0   91.21    2.12
   6   4   0   99.68    2.25
   6   4   0   92.48    2.63
   6   4   1   44.81    2.94
   6   4   1   42.15    1.31
   6   4   1   46.24    1.58
   6   4   1   50.04    1.53
   6   4   1   51.25    1.77
   6   4   1   45.85    1.80
   6   4   1   46.50    1.49
   6   4   1   40.75    1.31
   6   4   1   45.09    1.47
   6   4   1   41.68    1.73
   6   4   2  197.13    6.02
   6   4   2  182.97    3.27
   6   4   2  193.97    3.65
   6   4   2  190.23    3.47
   6   4   2  190.39    3.68
   6   4   2  188.13    3.61
   6   4   2  181.45    3.40
   6   4   2  171.28    3.24
   6   4   2  184.41    3.36
   6   4   2  184.38    3.69
   6   4   3  244.08    6.81
   6   4   3  225.19    3.90
   6   4   3  238.99    4.30
   6   4   3  260.79    4.19
   6   4   3  254.97    4.33
   6   4   3  235.63    4.20
   6   4   3  201.98    4.17
   6   4   3  236.12    4.04
   6   4   3  228.42    4.01
   6   4   3  227.23    4.27
   6   4   3  206.76    3.81
   6   4   4  107.19    4.37
   6   4   4  100.78    2.14
   6   4   4  105.76    2.43
   6   4   4   96.08    2.23
   6   4   4   98.27    2.35
   6   4   4   96.67    2.43
   6   4   4   91.35    2.44
   6   4   4   98.61    2.37
   6   4   4   90.53    2.11
   6   4   4   94.21    2.18
   6   4   4   97.36    2.32
   6   4   4   95.13    2.35
   6   4   5  167.46    5.53
   6   4   5  155.47    2.96
   6   4   5  164.02    3.30
   6   4   5  165.82    3.38
   6   4   5  166.79    3.15
   6   4   5  175.58    3.26
   6   4   5  173.67    3.34
   6   4   5  156.20    3.19
   6   4   5  156.84    3.19
   6   4   5  160.34    3.46
   6   4   5  149.28    2.95
   6   4   5  170.86    3.44
   6   4   5  149.39    3.14
   6   4   5  161.22    3.12
   6   4   5  150.28    3.15
   6   4   5  159.92    3.31
   6   4   6   10.90    1.79
   6   4   6    9.00    0.78
   6   4   6    9.27    0.86
   6   4   6    8.89    0.97
   6   4   6    8.92    0.92
   6   4   6    8.75    0.92
   6   4   6    9.19    0.80
   6   4   6    8.76    0.78
   6   4   6    8.36    1.14
   6   4   6   10.09    1.05
   6   4   6    8.99    0.89
   6   4   6    8.65    0.91
   6   4   6    7.31    0.88
   6   4   6   10.22    1.21
   6   4   7   11.46    1.79
   6   4   7   12.40    0.92
   6   4   7   11.93    1.00
   6   4   7   11.68    0.92
   6   4   7   12.92    1.25
   6   4   7   12.29    0.88
   6   4   7   10.92    0.79
   6   4   7   10.19    0.80
   6   4   7   11.24    1.05
   6   4   7   10.16    1.01
   6   4   7    9.83    0.92
   6   4   7   10.69    0.96
   6   4   7   10.71    1.00
   6   4   7   12.58    1.32
   6   4   8  229.37    6.44
   6   4   8  237.35    4.18
   6   4   8  235.65    4.08
   6   4   8  262.88    4.63
   6   4   8  233.71    4.23
   6   4   8  222.20    3.96
   6   4   8  220.48    4.11
   6   4   8  232.65    4.19
   6   4   8  218.93    4.10
   6   4   8  224.19    4.03
   6   4   8  222.39    4.29
   6   4   8  246.91    4.62
   6   4   9   67.70    2.32
   6   4   9   68.03    1.73
   6   4   9   63.74    1.82
   6   4   9   73.49    2.23
   6   4   9   60.10    1.70
   6   4   9   55.27    1.55
   6   4   9   67.89    1.85
   6   4   9   65.06    1.86
   6   4   9   64.65    1.76
   6   4   9   63.75    1.99
   6   4   9   59.79    3.17
   6   4  10    1.19    0.67
   6   4  10    0.91    0.78
   6   4  10    0.98    1.03
   6   4  10    1.76    0.97
   6   4  10    0.32    0.85
   6   4  10    0.58    0.76
   6   4  10    1.26    1.26
   6   4  11  261.72    4.87
   6   4  11  271.93    4.60
   6   4  11  303.08    5.04
   6   4  11  270.94    4.76
   6   4  11  237.30    4.72
   6   4  11  279.46    4.99
   6   4  11  291.15    5.23
   6   4  12   24.15    1.22
   6   4  12   22.16    1.23
   6   4  12   24.27    1.38
   6   4  12   25.79    1.30
   6   4  12   27.92    1.63
   6   4  12   21.70    1.45
   6   4  12   24.34    1.10
   6   4  13  137.22    2.89
   6   4  13  145.08    2.77
   6   4  14   20.73    0.85
   6   4  14   16.37    0.94
   6   4  14   14.98    0.83
   6   4  14   21.70    1.29
   6   4  14   16.14    1.03
   6   4  14   16.56    1.12
   6   4  15   26.36    0.87
   6   4  15   28.60    1.23
   6   4  15   23.79    1.14
   6   4  15   21.41    1.03
   6   4  16   11.87    0.63
   6   4  16    8.91    0.75
   6   4  16    7.83    0.74
   6   4  16   10.74    0.77
   6   4  17   44.86    1.10
   6   5 -10    1.72    0.58
   6   5  -9   22.33    0.97
   6   5  -9   27.17    1.21
   6   5  -8    6.16    1.05
   6   5  -8    3.57    0.65
   6   5  -7   18.77    1.54
   6   5  -6   33.88    2.39
   6   5  -5  309.02    6.26
   6   5  -5  241.48    4.25
   6   5  -4    2.87    0.78
   6   5  -3    4.06    1.18
   6   5  -3    3.96    0.82
   6   5  -3    3.80    0.67
   6   5  -3    5.14    1.34
   6   5  -3    3.52    0.61
   6   5  -2   10.65    0.77
   6   5  -2   10.03    1.31
   6   5  -2   10.50    1.23
   6   5  -2    9.87    1.65
   6   5  -2   11.86    0.99
   6   5  -1   95.60    2.52
   6   5  -1   93.24    2.13
   6   5  -1   95.33    2.54
   6   5  -1   94.45    2.60
   6   5  -1  104.49    2.29
   6   5  -1   98.56    4.17
   6   5   0  136.76    5.04
   6   5   0  131.40    2.95
   6   5   0  147.88    3.14
   6   5   0  142.24    2.78
   6   5   0  137.83    3.06
   6   5   0  134.45    3.06
   6   5   0  128.12    2.75
   6   5   0  140.86    2.81
   6   5   0  129.63    3.13
   6   5   1   69.92    3.65
   6   5   1   67.75    1.96
   6   5   1   60.94    1.95
   6   5   1   59.85    1.68
   6   5   1   64.63    2.02
   6   5   1   61.28    1.66
   6   5   1   59.63    1.98
   6   5   2  109.82    4.64
   6   5   2  107.85    2.63
   6   5   2  127.82    2.73
   6   5   2  122.06    2.49
   6   5   2   94.46    2.49
   6   5   2  116.52    2.66
   6   5   2  107.28    2.34
   6   5   2  113.07    2.67
   6   5   3   88.60    4.08
   6   5   3   84.45    2.21
   6   5   3   80.13    2.11
   6   5   3   80.02    1.95
   6   5   3   81.56    2.15
   6   5   3   68.17    2.10
   6   5   3   74.67    1.80
   6   5   3   73.34    2.02
   6   5   3   77.65    2.11
   6   5   4   94.67    4.23
   6   5   4   92.64    2.35
   6   5   4   94.52    2.15
   6   5   4   97.05    2.27
   6   5   4   95.21    2.43
   6   5   4   79.54    1.88
   6   5   4   87.47    2.19
   6   5   4   89.40    2.21
   6   5   4   85.61    2.17
   6   5   5   74.47    2.14
   6   5   5   78.80    2.03
   6   5   5   78.93    2.12
   6   5   5   72.49    1.96
   6   5   5   76.95    2.24
   6   5   5   68.67    1.92
   6   5   5   77.31    2.16
   6   5   5   79.91    3.91
   6   5   5   78.73    2.12
   6   5   6   63.11    3.45
   6   5   6   61.55    1.85
   6   5   6   61.47    1.89
   6   5   6   64.14    1.85
   6   5   6   57.51    2.06
   6   5   6   58.40    1.65
   6   5   6   55.80    1.63
   6   5   6   60.22    1.95
   6   5   6   57.15    1.75
   6   5   6   59.41    1.77
   6   5   6   58.38    2.00
   6   5   7   35.21    2.68
   6   5   7   32.93    1.36
   6   5   7   33.14    1.41
   6   5   7   33.32    1.35
   6   5   7   32.83    1.70
   6   5   7   31.67    1.22
   6   5   7   32.38    1.18
   6   5   7   32.54    1.48
   6   5   7   30.64    1.41
   6   5   7   30.23    1.34
   6   5   7   33.54    1.36
   6   5   7   33.85    1.67
   6   5   8  647.65   12.94
   6   5   8  666.77    9.91
   6   5   8  672.28    9.80
   6   5   8  735.26   10.44
   6   5   8  589.07    9.55
   6   5   8  663.28    9.94
   6   5   8  628.46    9.85
   6   5   8  647.01    9.78
   6   5   8  697.49   10.40
   6   5   9  167.82    5.39
   6   5   9  171.84    3.35
   6   5   9  170.50    3.35
   6   5   9  177.66    3.31
   6   5   9  194.78    3.91
   6   5   9  156.23    3.09
   6   5   9  174.33    3.41
   6   5   9  172.24    3.46
   6   5   9  170.46    3.32
   6   5   9  199.66    4.01
   6   5  10  343.77    5.57
   6   5  10  339.08    5.60
   6   5  10  383.16    6.18
   6   5  10  342.98    5.77
   6   5  10  295.57    5.66
   6   5  10  333.30    5.56
   6   5  10  345.07    5.97
   6   5  10  384.66    6.34
   6   5  11    0.21    0.80
   6   5  11    0.52    0.73
   6   5  11    1.52    0.99
   6   5  11    0.17    0.97
   6   5  11    0.53    0.86
   6   5  11    0.56    0.82
   6   5  11    0.73    1.27
   6   5  12  156.49    3.27
   6   5  12  160.76    3.02
   6   5  12  164.52    3.45
   6   5  12  163.83    3.67
   6   5  13   32.68    1.29
   6   5  13   31.19    1.28
   6   5  13   29.23    1.33
   6   5  14   56.57    1.35
   6   5  14   49.86    1.46
   6   5  14   43.03    1.32
   6   5  14   63.26    1.89
   6   5  14   46.55    1.55
   6   5  14   52.59    1.67
   6   5  15   20.42    0.79
   6   5  15   15.69    0.83
   6   5  15   22.79    1.17
   6   5  15   17.51    1.03
   6   5  15   15.63    0.92
   6   5  16   23.56    0.79
   6   5  16   16.93    0.89
   6   5  16   17.80    0.90
   6   5  16   26.00    0.99
   6   5  17   14.81    0.63
   6   5  17   18.01    0.68
   6   6 -10   15.82    0.78
   6   6  -9    0.27    0.66
   6   6  -8   33.29    1.12
   6   6  -8   40.76    1.53
   6   6  -7   -0.69    0.84
   6   6  -7   -0.19    1.01
   6   6  -7    0.19    0.57
   6   6  -6   25.78    1.30
   6   6  -6   36.05    1.97
   6   6  -5   25.75    1.39
   6   6  -5   26.00    1.26
   6   6  -4   29.02    1.49
   6   6  -4   31.79    1.80
   6   6  -4   27.21    1.32
   6   6  -3    1.86    1.10
   6   6  -3    1.28    0.56
   6   6  -3    1.79    0.64
   6   6  -3    2.03    0.87
   6   6  -2   62.14    2.01
   6   6  -2   61.68    2.07
   6   6  -2   63.39    3.32
   6   6  -2   62.72    1.80
   6   6  -2   66.93    1.82
   6   6  -2   63.41    1.95
   6   6  -1    2.79    0.91
   6   6  -1    1.50    0.56
   6   6  -1    1.93    1.10
   6   6  -1    1.82    0.93
   6   6  -1    1.05    1.34
   6   6  -1    1.21    0.94
   6   6   0  166.47    3.40
   6   6   0  161.85    3.04
   6   6   0  169.04    3.36
   6   6   0  174.26    3.54
   6   6   0  148.79    3.20
   6   6   0  153.84    3.43
   6   6   0  183.87    5.93
   6   6   1   40.31    2.96
   6   6   1   36.95    1.52
   6   6   1   41.46    1.56
   6   6   1   37.97    1.28
   6   6   1   38.25    1.60
   6   6   1   35.57    1.30
   6   6   1   35.11    1.62
   6   6   1   32.37    1.49
   6   6   2   73.83    2.05
   6   6   2   72.80    2.09
   6   6   2   70.28    2.02
   6   6   2   77.54    2.09
   6   6   2   73.92    1.88
   6   6   2   76.13    2.18
   6   6   3  315.05    5.15
   6   6   3  289.06    4.96
   6   6   3  279.21    5.01
   6   6   3  296.87    5.02
   6   6   3  280.49    4.87
   6   6   3  325.33    8.40
   6   6   3  308.87    5.37
   6   6   4    1.59    0.84
   6   6   4    1.06    0.90
   6   6   4    0.76    1.20
   6   6   4    1.69    0.75
   6   6   4    1.47    0.51
   6   6   4    1.14    1.55
   6   6   4    1.66    0.81
   6   6   5  141.83    3.11
   6   6   5  144.41    2.92
   6   6   5  146.73    3.08
   6   6   5  134.64    2.84
   6   6   5  133.55    2.90
   6   6   5  135.74    3.02
   6   6   5  145.97    5.38
   6   6   5  140.55    3.09
   6   6   6    1.56    1.51
   6   6   6    2.35    0.87
   6   6   6    2.57    0.86
   6   6   6    2.24    0.58
   6   6   6    2.05    1.00
   6   6   6    1.95    0.91
   6   6   6    1.90    1.06
   6   6   7  180.39    5.96
   6   6   7  183.65    3.55
   6   6   7  185.62    3.50
   6   6   7  182.46    3.66
   6   6   7  175.82    3.47
   6   6   7  190.40    3.87
   6   6   8    1.87    1.45
   6   6   8    1.77    0.86
   6   6   8    2.09    0.80
   6   6   8    1.36    0.95
   6   6   8    2.36    0.78
   6   6   8    2.44    0.95
   6   6   8    2.44    0.93
   6   6   8    2.96    1.31
   6   6   9  276.20    5.15
   6   6   9  245.21    4.35
   6   6   9  274.05    4.99
   6   6   9  248.13    4.46
   6   6   9  247.65    4.55
   6   6   9  246.36    4.38
   6   6   9  227.93    6.66
   6   6   9  230.73    4.37
   6   6  10   11.08    0.91
   6   6  10   12.03    0.99
   6   6  10   13.26    1.35
   6   6  10   10.48    1.11
   6   6  10   11.85    1.01
   6   6  10   12.82    1.58
   6   6  11   28.88    1.19
   6   6  11   28.83    1.53
   6   6  11   27.57    1.37
   6   6  11   23.46    1.29
   6   6  11   27.68    1.50
   6   6  11   27.99    1.77
   6   6  12   27.98    1.31
   6   6  12   30.23    1.16
   6   6  12   30.03    1.37
   6   6  12   29.41    1.49
   6   6  12   31.02    1.73
   6   6  12   29.50    1.44
   6   6  13   62.96    1.88
   6   6  13   69.56    1.85
   6   6  14    4.89    0.61
   6   6  14    4.60    0.65
   6   6  14    5.02    0.91
   6   6  14    3.57    0.78
   6   6  14    5.20    1.10
   6   6  14    3.52    0.65
   6   6  15   15.00    0.79
   6   6  15   14.22    0.88
   6   6  15   15.12    0.98
   6   6  16    1.76    0.47
   6   6  16    2.08    0.67
   6   6  16    1.50    0.58
   6   6  17   41.69    0.96
   6   7  -9   35.25    1.15
   6   7  -8    2.12    0.76
   6   7  -8    0.64    0.57
   6   7  -7   37.26    1.53
   6   7  -6    9.27    1.17
   6   7  -5  115.01    2.99
   6   7  -4    3.26    0.96
   6   7  -4    4.34    1.08
   6   7  -4    2.87    0.74
   6   7  -4    4.35    0.69
   6   7  -3   23.96    1.30
   6   7  -3   26.22    1.46
   6   7  -3   27.32    1.18
   6   7  -3   22.46    1.17
   6   7  -2    3.01    0.82
   6   7  -2    2.02    0.91
   6   7  -2    2.50    1.40
   6   7  -2    2.54    1.00
   6   7  -2    3.59    0.70
   6   7  -2    1.93    1.31
   6   7  -2    2.54    0.67
   6   7  -1   65.80    1.88
   6   7  -1   61.41    2.08
   6   7  -1   56.53    1.91
   6   7  -1   65.66    1.91
   6   7  -1   63.97    2.01
   6   7  -1   71.11    1.90
   6   7  -1   69.23    3.65
   6   7  -1   66.03    1.93
   6   7   0   28.40    1.38
   6   7   0   28.37    1.40
   6   7   0   26.66    1.60
   6   7   0   24.36    1.30
   6   7   0   28.23    1.30
   6   7   0   27.85    2.58
   6   7   1  118.91    2.65
   6   7   1  115.02    2.78
   6   7   1  128.79    2.73
   6   7   1  130.09    5.18
   6   7   2   13.68    1.15
   6   7   2   13.60    1.42
   6   7   2   14.69    2.24
   6   7   2   15.14    1.06
   6   7   3   26.18    1.61
   6   7   3   30.66    2.82
   6   7   3   26.51    1.27
   6   7   3   26.99    1.45
   6   7   4   97.78    2.29
   6   7   4   98.29    2.48
   6   7   4   95.88    2.44
   6   7   4   84.80    2.20
   6   7   4   87.32    2.12
   6   7   4  106.96    4.79
   6   7   5    2.55    0.93
   6   7   5    3.23    0.92
   6   7   5    2.99    0.62
   6   7   5    3.42    1.31
   6   7   5    3.44    1.71
   6   7   6   86.47    4.26
   6   7   6   83.98    2.19
   6   7   6   80.75    2.22
   6   7   6   81.61    2.37
   6   7   6   82.09    2.22
   6   7   6   79.25    2.30
   6   7   7   59.60    3.52
   6   7   7   57.10    1.74
   6   7   7   56.32    1.78
   6   7   7   55.45    1.91
   6   7   7   55.64    1.81
   6   7   7   57.03    2.12
   6   7   8  268.12    7.61
   6   7   8  268.42    5.02
   6   7   8  301.16    4.92
   6   7   8  291.48    4.97
   6   7   8  285.99    5.05
   6   7   8  268.38    5.04
   6   7   8  288.09    4.95
   6   7   8  293.76    5.57
   6   7   9    7.42    1.63
   6   7   9    6.80    0.84
   6   7   9    6.51    0.97
   6   7   9    6.22    1.05
   6   7   9    7.13    1.00
   6   7   9    7.16    1.58
   6   7   9    6.29    0.80
   6   7  10   65.42    2.62
   6   7  10   58.42    1.71
   6   7  10   59.38    1.76
   6   7  10   68.08    2.24
   6   7  10   60.24    1.94
   6   7  10   60.14    1.77
   6   7  10   64.70    2.21
   6   7  11   19.41    1.03
   6   7  11   20.49    1.70
   6   7  11   18.47    1.23
   6   7  11   17.96    1.33
   6   7  11   19.02    1.38
   6   7  12   52.30    1.48
   6   7  12   50.80    1.67
   6   7  13   40.93    1.47
   6   7  13   40.37    1.58
   6   7  13   38.06    1.44
   6   7  14   97.40    1.83
   6   7  14   83.48    1.95
   6   7  14   77.91    1.85
   6   7  14   80.96    2.06
   6   7  14   92.88    2.20
   6   7  15    2.39    0.51
   6   7  15    1.98    0.50
   6   7  15    2.15    0.88
   6   7  15    1.91    0.72
   6   7  16   32.88    0.88
   6   7  16   36.47    1.10
   6   7  17    1.76    0.33
   6   8  -8   54.54    1.46
   6   8  -7    2.30    0.78
   6   8  -6   46.47    1.63
   6   8  -5    1.65    0.91
   6   8  -4   68.95    2.11
   6   8  -4   69.89    1.81
   6   8  -3    0.17    0.85
   6   8  -3    0.20    0.60
   6   8  -3   -0.16    1.61
   6   8  -2   23.76    1.11
   6   8  -2   26.95    1.75
   6   8  -2   28.22    1.41
   6   8  -2   31.16    1.28
   6   8  -2   25.62    2.29
   6   8  -2   27.24    1.20
   6   8  -1   36.26    1.34
   6   8  -1   38.80    1.83
   6   8  -1   35.10    1.37
   6   8  -1   40.52    1.45
   6   8  -1   36.08    2.77
   6   8  -1   37.24    1.47
   6   8   0    2.15    0.73
   6   8   0    3.35    1.35
   6   8   0    2.91    0.89
   6   8   0    3.53    0.72
   6   8   0    3.35    1.61
   6   8   0    3.43    0.84
   6   8   1    6.78    0.84
   6   8   1    5.65    1.40
   6   8   1    5.53    0.93
   6   8   1    6.24    0.79
   6   8   1    5.74    1.14
   6   8   1    7.45    1.85
   6   8   2  154.07    3.37
   6   8   2  147.14    5.81
   6   8   2  140.94    2.93
   6   8   2  142.62    3.22
   6   8   2  142.76    3.02
   6   8   2  143.46    3.17
   6   8   3   80.59    4.43
   6   8   3   76.22    1.97
   6   8   3   77.98    2.21
   6   8   3   76.10    2.28
   6   8   4   55.49    3.81
   6   8   4   53.16    1.80
   6   8   4   51.48    1.98
   6   8   5   78.46    2.12
   6   8   5   75.11    2.18
   6   8   5   78.77    2.39
   6   8   5   73.29    4.21
   6   8   5   76.11    2.28
   6   8   6   40.22    1.48
   6   8   6   37.47    1.54
   6   8   6   36.93    1.69
   6   8   6   37.50    1.64
   6   8   6   39.98    3.16
   6   8   7  151.27    3.42
   6   8   7  152.16    5.76
   6   8   7  170.61    3.26
   6   8   7  167.67    3.32
   6   8   7  160.94    3.43
   6   8   7  161.71    3.35
   6   8   7  157.06    3.62
   6   8   8   10.61    1.91
   6   8   8   11.30    1.00
   6   8   8   10.02    0.91
   6   8   8   10.18    0.93
   6   8   8    9.77    1.08
   6   8   8    9.18    1.08
   6   8   8   12.26    1.66
   6   8   9   47.25    2.68
   6   8   9   43.38    1.45
   6   8   9   42.40    1.56
   6   8   9   39.60    1.68
   6   8   9   43.69    1.59
   6   8   9   36.90    2.79
   6   8   9   39.33    1.48
   6   8  10    2.73    1.81
   6   8  10    2.77    0.70
   6   8  10    2.34    0.77
   6   8  10    3.41    1.18
   6   8  10    2.87    0.94
   6   8  10    1.88    0.85
   6   8  10    3.04    1.14
   6   8  11   35.13    1.70
   6   8  11   36.12    2.09
   6   8  11   35.17    1.29
   6   8  11   36.06    1.52
   6   8  12    0.81    0.80
   6   8  13   99.72    2.28
   6   8  13  105.51    2.01
   6   8  13   94.43    2.21
   6   8  13   98.23    2.06
   6   8  13  105.69    2.33
   6   8  13   86.91    2.27
   6   8  13  101.47    2.45
   6   8  13  118.30    2.72
   6   8  14    1.81    0.59
   6   8  14    2.23    0.52
   6   8  14    1.80    0.54
   6   8  14    2.72    1.04
   6   8  14    1.95    0.81
   6   8  14    2.03    0.70
   6   8  15  114.65    2.28
   6   8  15  121.47    2.47
   6   8  16    1.14    0.49
   6   8  16    1.92    0.61
   6   9  -5   45.63    1.54
   6   9  -4    0.30    0.56
   6   9  -4    0.46    0.76
   6   9  -3   27.62    1.17
   6   9  -3   25.68    1.26
   6   9  -2   22.87    1.69
   6   9  -2   23.20    1.14
   6   9  -2   20.27    1.15
   6   9  -1  145.07    3.23
   6   9  -1  133.76    2.97
   6   9  -1  145.11    5.38
   6   9  -1  142.58    3.11
   6   9   0  121.68    2.93
   6   9   0  119.92    5.04
   6   9   0  118.38    2.52
   6   9   0  135.41    2.86
   6   9   0  134.73    3.02
   6   9   1   97.48    2.55
   6   9   1  100.92    4.72
   6   9   1   82.69    2.05
   6   9   1   86.04    2.38
   6   9   1  103.67    2.41
   6   9   1   96.65    2.57
   6   9   2   18.20    1.50
   6   9   2   17.46    2.52
   6   9   2   17.92    0.99
   6   9   2   17.79    1.21
   6   9   2   18.31    1.08
   6   9   2   18.76    1.64
   6   9   3   10.32    1.47
   6   9   3   12.13    2.49
   6   9   3    7.93    0.97
   6   9   3   10.06    0.91
   6   9   3    9.02    1.51
   6   9   4   43.91    1.71
   6   9   4   47.50    1.64
   6   9   4   53.56    2.24
   6   9   4   51.11    4.03
   6   9   4   44.62    1.61
   6   9   4   47.21    1.98
   6   9   5   84.58    2.30
   6   9   5   88.52    2.24
   6   9   5   92.62    5.02
   6   9   5   87.05    2.55
   6   9   5   95.36    2.41
   6   9   5   91.43    2.52
   6   9   6   89.61    2.26
   6   9   6   89.93    2.20
   6   9   6   94.11    2.63
   6   9   6   84.88    4.59
   6   9   6   93.58    2.53
   6   9   6   94.35    2.51
   6   9   6   81.88    2.19
   6   9   7   12.85    1.01
   6   9   7   12.38    0.94
   6   9   7   15.92    1.34
   6   9   7   15.01    2.25
   6   9   7   12.55    1.17
   6   9   7   13.45    1.22
   6   9   7   12.69    1.36
   6   9   8   58.55    1.72
   6   9   8   62.05    1.69
   6   9   8   58.77    2.40
   6   9   8   59.03    1.86
   6   9   8   62.79    1.92
   6   9   8   57.59    3.59
   6   9   8   59.15    1.91
   6   9   9   30.49    1.33
   6   9   9   32.06    1.22
   6   9   9   28.49    1.49
   6   9   9   32.10    1.41
   6   9   9   30.07    1.33
   6   9  10   67.09    2.01
   6   9  10   70.19    1.89
   6   9  10   65.37    1.77
   6   9  10   62.27    1.71
   6   9  11    0.51    0.80
   6   9  12  119.95    2.40
   6   9  12  131.02    2.84
   6   9  12  124.45    2.70
   6   9  12  122.29    2.84
   6   9  12  131.19    3.12
   6   9  13    1.98    0.51
   6   9  13    1.67    0.60
   6   9  13    1.21    0.54
   6   9  13    1.37    0.87
   6   9  13    1.67    0.77
   6   9  13    1.03    1.05
   6   9  13    2.31    0.77
   6   9  14   55.04    1.40
   6   9  14   53.05    1.37
   6   9  14   55.25    1.64
   6   9  15   -0.37    0.40
   6   9  15    0.02    0.37
   6   9  15   -0.11    0.59
   6   9  15   -0.23    0.74
   6   9  16   18.88    0.71
   6   9  16   28.71    0.86
   6  10  -6    7.82    0.58
   6  10  -4   25.86    1.02
   6  10  -3    1.87    1.36
   6  10  -3    1.16    0.62
   6  10  -2  149.50    2.86
   6  10  -2  115.66    2.62
   6  10  -1    1.94    0.75
   6  10  -1    3.73    0.83
   6  10  -1    3.35    0.77
   6  10  -1    4.31    1.44
   6  10   0   90.69    2.45
   6  10   0   86.62    2.28
   6  10   0  105.10    2.42
   6  10   0   98.39    2.57
   6  10   1    0.53    1.10
   6  10   1    0.32    1.61
   6  10   1    0.43    0.78
   6  10   1    0.78    0.69
   6  10   1    1.28    1.40
   6  10   2  157.56    3.52
   6  10   2  143.64    6.10
   6  10   2  148.50    3.16
   6  10   2  155.75    3.30
   6  10   3    2.04    0.84
   6  10   3    2.13    1.43
   6  10   3    0.60    2.09
   6  10   3    2.68    0.77
   6  10   3    2.40    0.76
   6  10   3    2.75    1.46
   6  10   4   40.93    1.59
   6  10   4   42.87    1.50
   6  10   4   62.26    2.80
   6  10   4   57.80    4.97
   6  10   4   47.54    1.73
   6  10   4   49.16    1.97
   6  10   5   50.94    1.59
   6  10   5   60.66    2.55
   6  10   5   54.26    4.40
   6  10   5   48.68    1.91
   6  10   5   48.69    1.67
   6  10   5   56.98    2.08
   6  10   6   25.86    1.40
   6  10   6   28.53    1.76
   6  10   6   26.48    2.99
   6  10   6   27.70    1.16
   6  10   6   24.50    1.20
   6  10   6   25.61    1.43
   6  10   6   27.76    1.48
   6  10   6   28.47    1.70
   6  10   7   54.25    1.57
   6  10   7   53.17    1.61
   6  10   7   53.31    1.81
   6  10   7   56.65    1.87
   6  10   7   50.86    3.54
   6  10   8    8.61    1.34
   6  10   8   10.11    0.80
   6  10   8   10.67    1.08
   6  10   8   11.07    1.19
   6  10   8    9.54    0.98
   6  10   8   10.15    0.97
   6  10   9   49.27    1.42
   6  10   9   46.74    1.53
   6  10   9   46.86    1.75
   6  10   9   51.57    1.66
   6  10   9   49.74    1.62
   6  10  11   40.92    1.25
   6  10  11   43.28    1.96
   6  10  11   44.05    1.58
   6  10  11   43.66    1.74
   6  10  12    7.14    0.97
   6  10  12    7.67    0.59
   6  10  12    7.82    0.65
   6  10  12    7.58    0.91
   6  10  12    9.62    1.20
   6  10  13   42.54    1.38
   6  10  13   43.45    1.14
   6  10  13   46.04    1.43
   6  10  13   43.14    1.51
   6  10  13   43.49    1.06
   6  10  13   42.93    1.29
   6  10  14    7.78    0.81
   6  10  14    7.03    0.60
   6  10  14    8.27    0.50
   6  10  14    7.31    0.57
   6  10  15   44.67    1.15
   6  10  15   38.05    0.91
   6  11  -4    7.62    0.61
   6  11  -3    9.67    0.74
   6  11  -3   10.52    1.29
   6  11  -2    0.56    0.55
   6  11  -2    1.03    0.56
   6  11  -2    1.47    0.63
   6  11  -2    1.09    1.28
   6  11  -1   59.91    1.76
   6  11  -1   50.50    1.53
   6  11   0   18.71    1.09
   6  11   0   16.28    1.14
   6  11   1   96.21    2.54
   6  11   1   98.32    2.33
   6  11   1  102.39    2.55
   6  11   2    6.25    0.86
   6  11   2    5.90    1.33
   6  11   2    6.16    0.75
   6  11   2    5.41    0.85
   6  11   2    7.84    1.49
   6  11   3   17.14    1.07
   6  11   3   21.26    1.90
   6  11   3   17.82    0.98
   6  11   3   21.76    1.19
   6  11   3   24.09    1.65
   6  11   4   13.33    0.94
   6  11   4   13.60    0.87
   6  11   4   20.53    2.71
   6  11   4   15.27    1.17
   6  11   4   18.94    1.59
   6  11   5   29.39    1.12
   6  11   5   26.19    1.16
   6  11   5   27.82    1.48
   6  11   6    4.70    0.66
   6  11   6    4.51    0.71
   6  11   6    5.08    0.95
   6  11   6    5.75    1.06
   6  11   6    5.38    1.41
   6  11   7   37.88    1.51
   6  11   7   40.55    1.26
   6  11   8   12.40    1.21
   6  11   8   10.21    0.98
   6  11   8    9.24    0.91
   6  11   9   66.80    1.86
   6  11  10   12.13    0.79
   6  11  10   12.57    1.08
   6  11  10   14.88    1.00
   6  11  10   13.48    1.31
   6  11  11    2.90    0.98
   6  11  11    2.88    0.48
   6  11  11    3.11    0.53
   6  11  11    3.26    0.84
   6  11  11    3.33    1.04
   6  11  12   56.00    1.67
   6  11  12   49.51    1.12
   6  11  12   51.43    1.47
   6  11  12   50.91    1.22
   6  11  12   54.77    1.57
   6  11  13   18.98    0.93
   6  11  13   19.78    0.97
   6  11  13   16.26    1.01
   6  11  13   17.31    0.58
   6  11  13   17.77    0.79
   6  11  14   47.68    1.31
   6  11  14   45.21    1.05
   6  11  14   46.21    1.07
   6  11  15    8.20    0.53
   6  11  15   10.86    0.62
   6  12  -3    2.52    0.50
   6  12  -3    2.62    1.11
   6  12  -2   58.06    1.53
   6  12  -2   60.47    1.83
   6  12  -1    1.47    0.61
   6  12  -1    2.03    0.64
   6  12  -1    2.75    1.23
   6  12   0   15.08    1.02
   6  12   0   18.94    1.01
   6  12   0   18.27    1.46
   6  12   1    7.44    1.10
   6  12   1    6.83    0.82
   6  12   2   44.61    1.85
   6  12   2   43.38    1.52
   6  12   3    3.43    1.41
   6  12   3    3.84    0.78
   6  12   4  131.23    3.56
   6  12   4  104.62    2.62
   6  12   5    1.81    1.59
   6  12   5    0.62    0.81
   6  12   6  173.55    3.79
   6  12   7    7.53    0.62
   6  12   7    9.40    1.20
   6  12   8  114.16    2.64
   6  12   8  120.23    2.56
   6  12   9   50.99    1.37
   6  12   9   54.16    1.76
   6  12  10   11.67    0.66
   6  12  10   13.42    1.04
   6  12  10   14.56    0.93
   6  12  11   11.03    0.58
   6  12  11   11.31    0.94
   6  12  11   11.10    1.05
   6  12  12    4.31    0.39
   6  12  12    5.22    0.75
   6  12  12    3.76    0.56
   6  12  12    4.46    0.77
   6  12  13   14.72    0.84
   6  12  13   14.20    0.62
   6  12  13   14.06    0.75
   6  12  14    4.21    0.51
   6  13  -3   59.27    1.32
   6  13  -3   65.71    1.58
   6  13  -2    7.23    0.58
   6  13  -2    7.85    1.10
   6  13  -1   65.57    1.53
   6  13  -1   67.92    1.80
   6  13   0    2.33    0.62
   6  13   0    2.99    0.60
   6  13   0    2.51    1.18
   6  13   1   33.65    1.21
   6  13   1   37.31    1.59
   6  13   2    0.92    1.02
   6  13   2    1.56    1.26
   6  13   2    0.86    0.63
   6  13   3    8.05    0.93
   6  13   3   12.06    1.29
   6  13   3   12.48    1.38
   6  13   3   10.35    0.86
   6  13   4   30.29    1.70
   6  13   4   27.99    1.58
   6  13   4   25.93    1.16
   6  13   5   64.56    1.95
   6  13   5   71.56    2.21
   6  13   5   54.91    1.75
   6  13   5   60.57    1.71
   6  13   5   46.74    1.54
   6  13   6    0.35    0.64
   6  13   6    1.34    1.05
   6  13   6    1.19    0.85
   6  13   7   40.83    1.27
   6  13   7   49.89    1.54
   6  13   8    7.19    0.61
   6  13   8    8.10    0.82
   6  13   8    8.53    0.88
   6  13   9   34.36    1.37
   6  13   9   37.84    1.23
   6  13  10   21.13    1.09
   6  13  10   23.16    0.96
   6  13  11   21.22    1.00
   6  13  11   21.40    1.09
   6  13  12   27.52    0.95
   6  13  12   20.34    0.92
   6  13  12   20.24    0.74
   6  13  12   25.87    0.96
   6  13  13    1.04    0.45
   6  14  -3    2.80    0.65
   6  14  -2   30.22    1.11
   6  14  -1    0.33    0.91
   6  14  -1   -0.22    0.39
   6  14   0   31.33    1.31
   6  14   0   28.07    0.96
   6  14   1    0.30    0.62
   6  14   1    0.37    0.55
   6  14   1    0.66    1.08
   6  14   1    0.70    0.50
   6  14   2   39.43    1.52
   6  14   2   38.45    1.17
   6  14   3    2.60    0.63
   6  14   3    3.81    0.94
   6  14   3    3.82    1.16
   6  14   3    4.02    0.60
   6  14   4   32.15    1.47
   6  14   4   33.27    1.41
   6  14   4   29.60    1.07
   6  14   5    0.41    0.93
   6  14   5    0.62    0.75
   6  14   5    0.27    0.50
   6  14   5    0.17    0.51
   6  14   6   43.77    1.19
   6  14   6   57.42    1.54
   6  14   7   30.94    1.16
   6  14   7   29.97    1.21
   6  14   8   41.75    1.23
   6  14   8   41.26    1.27
   6  14   9   58.16    1.58
   6  14   9   62.33    1.42
   6  14  10    7.79    0.74
   6  14  10    7.21    0.83
   6  14  11    5.99    0.61
   6  14  11    4.97    0.65
   6  14  12    4.77    0.45
   6  14  12    3.14    0.44
   6  15  -1   14.85    0.78
   6  15   0    0.50    0.75
   6  15   1   32.05    1.10
   6  15   1   12.96    0.55
   6  15   2    0.14    0.89
   6  15   2    0.59    0.59
   6  15   2    0.21    0.39
   6  15   2    0.27    0.34
   6  15   3   13.31    0.81
   6  15   3   12.85    0.81
   6  15   4    2.93    0.64
   6  15   4    2.91    0.47
   6  15   4    2.98    0.61
   6  15   5   89.29    1.98
   6  15   5   87.16    1.80
   6  15   6    0.19    0.53
   6  15   6    0.33    0.55
   6  15   7   13.83    0.72
   6  15   8    9.25    0.75
   6  15   8   11.90    0.63
   6  15   9    7.00    0.73
   6  15   9    8.74    0.68
   6  15  10    1.60    0.51
   6  15  10    2.55    0.48
   6  16   2   31.78    0.78
   6  16   3    5.67    0.45
   6  16   4    7.50    0.48
   6  16   5    0.70    0.37
   6  16   6   24.01    0.86
   6  16   6   35.79    0.77
   6  16   7   -0.26    0.41
   6  16   7    0.03    0.42
   6  16   8   10.88    0.58
   6  16   8   18.15    0.62
   7 -11  -2   19.03    0.52
   7 -11  -1    2.09    0.34
   7 -11  -1    1.34    0.27
   7 -11   0   18.63    0.63
   7 -11   0   17.27    0.58
   7 -11   1    2.04    0.39
   7 -11   1    1.15    0.27
   7 -11   1    1.65    0.36
   7 -11   1    1.61    0.38
   7 -11   2   42.26    0.95
   7 -11   2   40.66    1.01
   7 -11   2   42.33    0.95
   7 -11   3    2.46    0.35
   7 -11   3    2.64    0.41
   7 -11   3    2.71    0.36
   7 -11   4   19.57    0.62
   7 -11   4   21.54    0.70
   7 -11   4   20.37    0.56
   7 -11   5    0.32    0.24
   7 -11   5    0.05    0.26
   7 -10  -4   13.25    0.48
   7 -10  -3   20.89    0.64
   7 -10  -2   19.10    0.61
   7 -10  -2   21.38    0.74
   7 -10  -2   21.56    0.83
   7 -10  -1   52.63    1.27
   7 -10  -1   54.58    1.33
   7 -10   0    1.70    0.50
   7 -10   0    2.15    0.54
   7 -10   0    1.26    0.36
   7 -10   1   41.27    1.21
   7 -10   1   44.10    1.20
   7 -10   2    6.03    0.64
   7 -10   2    6.46    0.64
   7 -10   2    6.11    0.56
   7 -10   3   31.29    1.07
   7 -10   3   29.55    0.95
   7 -10   3   29.94    0.97
   7 -10   4    3.65    0.52
   7 -10   4    3.53    0.43
   7 -10   4    2.94    0.54
   7 -10   5  119.10    2.15
   7 -10   5  120.08    2.13
   7 -10   5  116.64    2.25
   7 -10   6   13.34    0.59
   7 -10   6   13.94    0.58
   7 -10   6   12.92    0.64
   7 -10   7   50.97    1.04
   7 -10   7   55.68    1.12
   7  -9  -5   28.19    0.80
   7  -9  -4   28.27    0.93
   7  -9  -4   31.11    0.94
   7  -9  -3   16.30    0.79
   7  -9  -3   18.26    0.62
   7  -9  -3   21.35    0.90
   7  -9  -3   22.20    0.80
   7  -9  -2   11.55    0.72
   7  -9  -2   12.85    0.73
   7  -9  -2   14.17    0.78
   7  -9  -2   12.01    0.64
   7  -9  -2   14.22    0.91
   7  -9  -1    5.12    0.44
   7  -9  -1    6.33    0.68
   7  -9  -1    8.96    0.88
   7  -9  -1    7.88    0.74
   7  -9   0   26.36    1.10
   7  -9   0   29.42    1.20
   7  -9   0   28.56    1.15
   7  -9   1   23.28    0.97
   7  -9   1   24.41    1.09
   7  -9   1   25.44    1.14
   7  -9   1   25.47    1.15
   7  -9   2   64.13    1.77
   7  -9   2   65.85    1.73
   7  -9   2   67.04    1.83
   7  -9   3    5.68    0.77
   7  -9   3    5.66    0.75
   7  -9   3    5.52    0.61
   7  -9   3    5.50    0.77
   7  -9   4   62.85    1.74
   7  -9   4   62.72    1.67
   7  -9   4   65.60    1.60
   7  -9   4   63.19    1.67
   7  -9   5   11.43    0.84
   7  -9   5   10.89    0.80
   7  -9   5   11.67    0.72
   7  -9   5   11.34    0.77
   7  -9   6   91.35    2.01
   7  -9   6   91.65    1.99
   7  -9   6   93.90    1.91
   7  -9   6   86.03    1.85
   7  -9   7    0.13    0.42
   7  -9   7    0.10    0.47
   7  -9   7   -0.16    0.43
   7  -9   8   41.74    1.06
   7  -9   8   43.56    1.05
   7  -9   9    0.99    0.31
   7  -8  -6   17.57    0.69
   7  -8  -5    8.19    0.66
   7  -8  -5    8.61    0.47
   7  -8  -4   17.71    0.95
   7  -8  -4   18.78    0.89
   7  -8  -3   31.26    1.10
   7  -8  -3   32.17    1.25
   7  -8  -3   32.91    0.94
   7  -8  -3   37.01    1.14
   7  -8  -3   35.25    1.28
   7  -8  -2   57.79    1.55
   7  -8  -2   52.06    1.51
   7  -8  -2   48.88    1.55
   7  -8  -2   59.55    1.81
   7  -8  -1   13.56    0.94
   7  -8  -1    9.43    0.61
   7  -8  -1   10.91    0.86
   7  -8  -1   12.02    0.87
   7  -8  -1   14.43    1.20
   7  -8   0   22.99    1.19
   7  -8   0   19.56    0.92
   7  -8   0   18.03    0.96
   7  -8   0   22.88    1.15
   7  -8   0   23.06    1.29
   7  -8   1   55.18    1.86
   7  -8   1   57.58    1.76
   7  -8   1   59.09    1.77
   7  -8   2   12.29    1.31
   7  -8   2   10.33    0.81
   7  -8   2   10.79    1.01
   7  -8   2    9.62    0.92
   7  -8   3   45.13    1.79
   7  -8   3   44.64    1.61
   7  -8   3   45.56    1.55
   7  -8   3   47.09    1.48
   7  -8   4   12.49    0.95
   7  -8   4   14.67    0.98
   7  -8   4   15.23    0.93
   7  -8   4   14.41    1.12
   7  -8   5   48.86    1.57
   7  -8   5   50.82    1.50
   7  -8   5   45.89    1.53
   7  -8   6   16.58    0.96
   7  -8   6   15.56    0.79
   7  -8   6   15.85    0.91
   7  -8   6   16.75    0.92
   7  -8   7   43.76    1.25
   7  -8   7   43.77    1.26
   7  -8   7   47.39    1.36
   7  -8   7   44.61    1.38
   7  -8   8    8.24    0.59
   7  -8   8    8.24    0.59
   7  -8   8    8.56    0.66
   7  -8   8    7.61    0.65
   7  -8   9   34.56    0.98
   7  -8   9   33.76    1.01
   7  -8  10    5.78    0.44
   7  -7  -7   10.01    0.53
   7  -7  -7   15.41    0.56
   7  -7  -6    0.98    0.51
   7  -7  -6    1.34    0.48
   7  -7  -6    1.04    0.27
   7  -7  -5   11.42    0.85
   7  -7  -5   12.72    0.74
   7  -7  -5   10.89    0.67
   7  -7  -5   12.77    0.63
   7  -7  -4    7.33    0.91
   7  -7  -4    7.12    0.46
   7  -7  -4    6.24    0.76
   7  -7  -4    7.45    0.66
   7  -7  -3   25.42    1.12
   7  -7  -3   29.18    1.46
   7  -7  -3   29.47    0.97
   7  -7  -3   26.53    1.34
   7  -7  -3   30.11    1.14
   7  -7  -2    9.44    0.84
   7  -7  -2   10.05    1.09
   7  -7  -2   10.45    1.45
   7  -7  -2    9.76    0.87
   7  -7  -1   18.71    0.87
   7  -7  -1   21.58    1.24
   7  -7  -1   22.42    1.17
   7  -7  -1   23.35    1.79
   7  -7  -1   23.44    1.21
   7  -7   0   13.05    0.87
   7  -7   0   14.49    1.35
   7  -7   0   13.27    1.00
   7  -7   1  132.19    2.90
   7  -7   1  139.24    3.02
   7  -7   2   49.79    1.61
   7  -7   2   50.57    1.73
   7  -7   3   53.69    1.70
   7  -7   4   72.32    1.97
   7  -7   4   72.50    1.81
   7  -7   5    3.99    0.71
   7  -7   5    6.36    0.79
   7  -7   5    4.50    0.80
   7  -7   5    4.67    0.64
   7  -7   5    4.39    0.87
   7  -7   6   74.30    2.02
   7  -7   6   75.56    1.99
   7  -7   6   79.32    1.93
   7  -7   7    4.15    0.70
   7  -7   7    3.54    0.73
   7  -7   7    4.07    0.58
   7  -7   7    4.97    0.66
   7  -7   7    4.55    0.70
   7  -7   8   44.03    1.24
   7  -7   8   44.58    1.38
   7  -7   8   42.92    1.24
   7  -7   8   42.20    1.39
   7  -7   8   40.52    1.39
   7  -7   9    0.57    0.49
   7  -7   9    0.39    0.44
   7  -7   9    0.10    0.54
   7  -7  10   31.89    1.02
   7  -7  10   29.71    0.99
   7  -7  11    0.67    0.35
   7  -7  11    0.57    0.34
   7  -6  -8   21.20    0.62
   7  -6  -7    5.53    0.53
   7  -6  -7    7.23    0.58
   7  -6  -6   13.96    0.84
   7  -6  -6   13.64    0.56
   7  -6  -5   19.17    1.09
   7  -6  -5   18.06    0.83
   7  -6  -5   23.18    1.09
   7  -6  -5   21.21    0.85
   7  -6  -4   32.96    1.58
   7  -6  -4   35.80    0.96
   7  -6  -4   38.56    1.49
   7  -6  -4   32.33    1.26
   7  -6  -4   36.74    1.21
   7  -6  -3   28.07    1.24
   7  -6  -3   34.76    2.03
   7  -6  -3   31.74    1.24
   7  -6  -3   32.92    1.08
   7  -6  -3   30.67    1.39
   7  -6  -3   30.99    1.50
   7  -6  -2  124.61    3.53
   7  -6  -1   -0.11    1.60
   7  -6   0    1.39    0.80
   7  -6   0    1.33    0.90
   7  -6   0    0.94    0.64
   7  -6   1   26.98    1.41
   7  -6   1   27.64    1.56
   7  -6   2   63.57    2.07
   7  -6   2   70.22    2.43
   7  -6   3   29.17    1.51
   7  -6   3   29.07    1.41
   7  -6   3   33.82    1.78
   7  -6   3   29.40    1.20
   7  -6   3   24.52    0.91
   7  -6   4   30.24    1.45
   7  -6   4   28.31    1.00
   7  -6   5   41.83    1.40
   7  -6   5   41.58    1.48
   7  -6   6    5.95    0.84
   7  -6   6    5.92    0.74
   7  -6   6    5.80    0.78
   7  -6   6    6.12    0.85
   7  -6   7   40.69    1.59
   7  -6   7   45.80    1.43
   7  -6   7   44.60    1.55
   7  -6   7   41.97    1.43
   7  -6   7   40.07    1.24
   7  -6   7   42.59    1.57
   7  -6   8   16.40    0.87
   7  -6   8   17.86    0.93
   7  -6   8   18.07    1.09
   7  -6   8   16.81    0.91
   7  -6   8   16.53    1.10
   7  -6   8   16.77    1.07
   7  -6   9  118.69    2.62
   7  -6   9  111.41    2.28
   7  -6   9  117.77    2.40
   7  -6   9  123.48    2.71
   7  -6   9  109.80    2.23
   7  -6  10    0.27    0.56
   7  -6  10    0.38    0.50
   7  -6  10    0.56    0.48
   7  -6  10    0.92    0.58
   7  -6  11   81.28    1.62
   7  -6  11   82.68    1.70
   7  -6  11   83.23    1.79
   7  -5  -8    0.03    0.27
   7  -5  -8    0.40    0.42
   7  -5  -7   15.39    0.77
   7  -5  -7   19.96    0.86
   7  -5  -6   -0.23    0.65
   7  -5  -6    0.09    0.72
   7  -5  -6    0.33    0.40
   7  -5  -5   26.99    1.30
   7  -5  -5   30.89    1.38
   7  -5  -5   29.83    1.03
   7  -5  -4    6.98    1.16
   7  -5  -4    5.45    0.82
   7  -5  -4    7.17    1.40
   7  -5  -4    7.29    0.76
   7  -5  -3   30.64    1.84
   7  -5  -3   26.94    1.39
   7  -5  -3   28.18    1.03
   7  -5  -2   28.13    1.40
   7  -5  -2   23.58    1.14
   7  -5  -1   28.06    1.39
   7  -5  -1   25.84    1.61
   7  -5  -1   27.62    1.37
   7  -5   0    1.69    0.92
   7  -5   0    1.55    0.45
   7  -5   0    2.59    0.88
   7  -5   0    1.88    0.94
   7  -5   0    2.43    1.19
   7  -5   1   18.52    1.36
   7  -5   1   14.58    0.77
   7  -5   1   19.04    1.13
   7  -5   1   15.20    1.16
   7  -5   1   15.75    1.21
   7  -5   1   16.09    1.12
   7  -5   1   18.34    1.39
   7  -5   1   16.06    0.99
   7  -5   2   49.44    1.93
   7  -5   2   39.33    1.23
   7  -5   2   49.57    1.78
   7  -5   2   41.50    1.57
   7  -5   2   43.18    1.79
   7  -5   2   45.43    1.65
   7  -5   2   46.76    1.79
   7  -5   2   42.11    1.41
   7  -5   3   49.34    1.87
   7  -5   3   46.19    1.58
   7  -5   3   41.18    1.25
   7  -5   3   51.64    1.90
   7  -5   3   42.65    1.52
   7  -5   3   46.22    1.86
   7  -5   3   41.23    1.69
   7  -5   3   48.71    1.70
   7  -5   3   49.60    1.80
   7  -5   4   64.44    2.02
   7  -5   4   71.37    1.94
   7  -5   4   69.22    1.99
   7  -5   4   74.58    2.20
   7  -5   4   58.13    1.54
   7  -5   4   60.35    1.71
   7  -5   4   64.02    2.08
   7  -5   4   69.85    2.06
   7  -5   5   37.77    1.45
   7  -5   5   38.65    1.63
   7  -5   5   40.57    1.62
   7  -5   5   44.13    1.53
   7  -5   5   42.61    1.58
   7  -5   5   45.16    1.67
   7  -5   5   40.28    1.25
   7  -5   6  138.16    3.31
   7  -5   6  166.36    3.28
   7  -5   6  160.87    3.41
   7  -5   6  146.76    2.85
   7  -5   7    5.09    0.68
   7  -5   7    6.31    0.80
   7  -5   7    6.09    0.91
   7  -5   8   46.08    1.42
   7  -5   8   49.86    1.61
   7  -5   8   49.11    1.93
   7  -5   8   46.27    1.46
   7  -5   8   46.75    1.88
   7  -5   8   48.75    1.83
   7  -5   9    9.03    1.13
   7  -5   9    7.74    0.72
   7  -5   9    8.78    0.82
   7  -5   9    9.38    1.21
   7  -5   9    7.90    0.72
   7  -5  10   42.25    1.54
   7  -5  10   43.45    1.28
   7  -5  10   47.20    1.45
   7  -5  10   44.88    1.67
   7  -5  10   42.32    1.18
   7  -5  11    2.94    0.56
   7  -5  11    3.38    0.55
   7  -5  11    4.26    0.63
   7  -5  11    3.38    0.63
   7  -5  12   76.40    1.54
   7  -5  12   79.40    1.67
   7  -5  12   78.63    1.68
   7  -5  13    1.61    0.37
   7  -4  -9    6.03    0.38
   7  -4  -8    3.31    0.53
   7  -4  -8    1.34    0.32
   7  -4  -7   17.00    0.89
   7  -4  -7   12.84    0.74
   7  -4  -6   37.51    1.05
   7  -4  -6   41.25    1.41
   7  -4  -6   38.21    1.32
   7  -4  -5    5.92    0.67
   7  -4  -5    4.30    0.89
   7  -4  -5    5.95    1.08
   7  -4  -5    4.86    0.80
   7  -4  -4  107.38    2.86
   7  -4  -4   93.45    2.17
   7  -4  -3    0.45    0.72
   7  -4  -3    0.91    1.15
   7  -4  -3    0.42    0.88
   7  -4  -3    0.15    0.45
   7  -4  -3    1.03    0.56
   7  -4  -3   -0.48    0.83
   7  -4  -2   44.36    1.59
   7  -4  -2   40.84    1.59
   7  -4  -2   44.57    2.09
   7  -4  -1    6.34    0.86
   7  -4  -1    6.09    0.65
   7  -4  -1    8.31    1.02
   7  -4  -1    8.47    0.99
   7  -4  -1    8.81    1.22
   7  -4  -1    9.64    1.28
   7  -4  -1    6.79    0.94
   7  -4  -1    6.75    0.97
   7  -4   0   25.84    1.22
   7  -4   0   30.02    1.15
   7  -4   0   34.46    1.34
   7  -4   0   33.36    1.27
   7  -4   0   33.07    1.62
   7  -4   0   33.11    1.55
   7  -4   0   29.06    1.26
   7  -4   0   37.25    1.70
   7  -4   0   32.39    1.43
   7  -4   0   33.90    1.55
   7  -4   1  167.19    3.29
   7  -4   1  179.42    3.31
   7  -4   1  184.31    3.58
   7  -4   1  173.20    3.71
   7  -4   1  177.05    3.86
   7  -4   1  181.63    3.69
   7  -4   1  193.10    3.88
   7  -4   1  177.62    3.53
   7  -4   1  184.70    3.82
   7  -4   2   87.54    2.06
   7  -4   2  100.00    2.46
   7  -4   2   84.42    2.34
   7  -4   2   88.66    2.56
   7  -4   2   89.74    2.44
   7  -4   2   96.61    2.55
   7  -4   2   88.48    2.24
   7  -4   2   91.75    2.53
   7  -4   3   63.89    1.73
   7  -4   3   72.47    2.06
   7  -4   3   77.82    2.20
   7  -4   3   71.37    2.02
   7  -4   3   69.52    2.26
   7  -4   3   69.26    2.17
   7  -4   3   72.89    2.17
   7  -4   3   75.96    2.21
   7  -4   3   74.09    1.96
   7  -4   3   74.25    2.22
   7  -4   4  118.05    2.71
   7  -4   4  117.65    2.79
   7  -4   4  108.31    2.34
   7  -4   4  123.67    2.84
   7  -4   4  105.86    2.47
   7  -4   4  111.26    2.94
   7  -4   4  101.64    2.75
   7  -4   4  114.93    2.80
   7  -4   4  109.68    2.67
   7  -4   5   82.88    2.21
   7  -4   5   80.03    2.28
   7  -4   5   81.55    2.22
   7  -4   5   73.04    1.81
   7  -4   5   70.92    2.00
   7  -4   5   73.28    1.85
   7  -4   5   71.93    2.23
   7  -4   5   76.83    2.25
   7  -4   6    1.43    0.82
   7  -4   6    1.69    0.64
   7  -4   6    1.41    0.63
   7  -4   6    1.85    0.84
   7  -4   6    1.22    0.71
   7  -4   6    1.28    0.54
   7  -4   6    2.01    0.75
   7  -4   6    1.35    0.78
   7  -4   6    2.17    0.80
   7  -4   7   79.29    2.06
   7  -4   7   85.23    2.24
   7  -4   7   77.42    2.38
   7  -4   7   79.69    2.08
   7  -4   7   75.95    1.86
   7  -4   7   69.85    2.25
   7  -4   7   69.81    2.29
   7  -4   8   24.53    1.26
   7  -4   8   24.90    1.61
   7  -4   8   21.77    0.93
   7  -4   9   68.03    1.79
   7  -4   9   72.01    1.87
   7  -4   9   69.92    1.81
   7  -4  10   14.06    0.84
   7  -4  10   14.02    0.88
   7  -4  10   15.74    1.08
   7  -4  10   15.86    1.31
   7  -4  10   14.53    0.79
   7  -4  10   13.45    1.20
   7  -4  11   62.41    1.81
   7  -4  11   60.46    1.54
   7  -4  11   62.34    1.55
   7  -4  12    1.71    0.56
   7  -4  12    0.99    0.49
   7  -4  12    1.09    0.48
   7  -4  12    1.03    0.49
   7  -4  12    1.28    0.53
   7  -4  13   34.59    0.95
   7  -4  13   36.27    1.06
   7  -4  14    3.77    0.37
   7  -3  -9   26.26    0.67
   7  -3  -9   12.39    0.67
   7  -3  -8   13.17    0.70
   7  -3  -8   10.70    0.81
   7  -3  -7   23.50    1.02
   7  -3  -7   20.92    1.11
   7  -3  -6   75.30    1.97
   7  -3  -6   61.38    1.73
   7  -3  -6   65.86    1.52
   7  -3  -6   80.86    1.78
   7  -3  -6   77.22    1.92
   7  -3  -6   60.31    1.79
   7  -3  -5  220.87    3.77
   7  -3  -5  205.44    3.44
   7  -3  -5  214.83    3.82
   7  -3  -5  213.74    3.55
   7  -3  -4    0.77    0.87
   7  -3  -4    0.53    0.56
   7  -3  -4    0.93    1.06
   7  -3  -4    0.36    0.51
   7  -3  -3   78.62    2.01
   7  -3  -3   78.94    2.39
   7  -3  -2    4.48    0.89
   7  -3  -2    3.83    1.14
   7  -3  -2    3.60    1.06
   7  -3  -2    2.85    0.65
   7  -3  -2    4.82    0.88
   7  -3  -2    4.15    0.72
   7  -3  -2    3.45    1.03
   7  -3  -2    3.85    0.94
   7  -3  -2    3.10    0.97
   7  -3  -1   22.76    1.34
   7  -3  -1   24.59    1.53
   7  -3  -1   19.75    1.25
   7  -3  -1   19.56    1.06
   7  -3  -1   22.75    1.36
   7  -3  -1   24.25    1.34
   7  -3  -1   23.92    1.17
   7  -3  -1   21.22    1.26
   7  -3  -1   25.01    1.40
   7  -3  -1   20.84    1.37
   7  -3   0    6.95    1.13
   7  -3   0    5.44    0.99
   7  -3   0    6.30    0.93
   7  -3   0    7.74    0.80
   7  -3   0    8.57    1.10
   7  -3   0    8.67    0.80
   7  -3   0    7.87    1.06
   7  -3   0    8.57    0.96
   7  -3   0    7.93    0.94
   7  -3   0    8.39    1.16
   7  -3   0    7.48    1.09
   7  -3   1   96.18    2.45
   7  -3   1  106.24    2.47
   7  -3   1  115.21    2.53
   7  -3   1  116.13    2.56
   7  -3   1  115.15    2.77
   7  -3   1  109.91    2.79
   7  -3   1  112.76    2.87
   7  -3   1  105.92    2.69
   7  -3   1  102.35    2.35
   7  -3   1  121.18    2.85
   7  -3   1  111.26    2.72
   7  -3   2   49.32    1.59
   7  -3   2   49.17    1.61
   7  -3   2   56.12    1.72
   7  -3   2   57.02    1.79
   7  -3   2   60.07    1.92
   7  -3   2   57.77    2.02
   7  -3   2   53.68    1.87
   7  -3   2   58.90    1.99
   7  -3   2   56.68    1.87
   7  -3   2   58.55    1.93
   7  -3   3  210.75    3.98
   7  -3   3  216.60    4.27
   7  -3   3  246.51    4.34
   7  -3   3  219.02    4.19
   7  -3   3  214.86    4.43
   7  -3   3  203.58    4.27
   7  -3   3  221.72    4.37
   7  -3   3  236.38    4.22
   7  -3   3  216.98    4.25
   7  -3   4   59.49    1.90
   7  -3   4   50.81    1.58
   7  -3   4   55.65    1.90
   7  -3   4   62.80    1.92
   7  -3   4   57.19    1.82
   7  -3   4   59.63    1.78
   7  -3   4   60.06    2.04
   7  -3   4   54.13    1.91
   7  -3   4   58.17    1.96
   7  -3   4   53.61    1.59
   7  -3   4   59.65    1.80
   7  -3   5   83.20    2.27
   7  -3   5   78.39    2.29
   7  -3   5   72.45    1.87
   7  -3   5   82.73    2.20
   7  -3   5   77.74    2.07
   7  -3   5   70.97    1.99
   7  -3   5   73.16    2.21
   7  -3   5   75.07    1.93
   7  -3   5   77.03    2.32
   7  -3   5   77.21    2.27
   7  -3   5   76.17    1.90
   7  -3   6   85.14    2.30
   7  -3   6   80.31    2.36
   7  -3   6   82.83    2.18
   7  -3   6   73.06    1.86
   7  -3   6   78.69    2.00
   7  -3   6   68.90    1.88
   7  -3   6   82.64    2.19
   7  -3   6   70.35    2.19
   7  -3   6   75.58    2.25
   7  -3   6   69.62    1.77
   7  -3   6   75.03    2.28
   7  -3   6   83.01    1.96
   7  -3   7   16.14    1.17
   7  -3   7   15.38    1.07
   7  -3   7   18.08    1.19
   7  -3   7   18.26    1.26
   7  -3   7   18.32    1.10
   7  -3   7   17.01    0.92
   7  -3   7   16.93    0.96
   7  -3   7   15.77    0.95
   7  -3   7   16.30    1.12
   7  -3   7   17.27    1.23
   7  -3   7   17.72    1.04
   7  -3   8  118.92    2.62
   7  -3   8  130.45    2.58
   7  -3   8  125.65    2.80
   7  -3   8  128.67    3.05
   7  -3   8  135.82    3.42
   7  -3   8  125.78    2.72
   7  -3   8  124.10    2.60
   7  -3   9   13.81    1.18
   7  -3   9   14.87    1.42
   7  -3  10  100.56    2.29
   7  -3  10  111.94    2.84
   7  -3  10  120.83    2.99
   7  -3  10  119.26    3.00
   7  -3  10  104.50    2.24
   7  -3  10  105.07    2.41
   7  -3  11    3.47    0.63
   7  -3  11    4.47    1.00
   7  -3  11    3.05    0.72
   7  -3  11    3.34    0.67
   7  -3  12   46.22    1.30
   7  -3  12   50.15    1.36
   7  -3  12   51.68    1.63
   7  -3  12   51.06    1.46
   7  -3  13    1.57    0.48
   7  -3  13    1.49    0.55
   7  -3  13    1.07    0.42
   7  -3  14   72.60    1.46
   7  -3  14   78.49    1.43
   7  -2  -9    3.61    0.62
   7  -2  -9    4.94    0.43
   7  -2  -8   14.45    0.71
   7  -2  -8   13.91    0.97
   7  -2  -8   16.05    0.77
   7  -2  -7    4.75    0.49
   7  -2  -7    8.33    1.09
   7  -2  -7    7.84    0.66
   7  -2  -7    9.43    0.85
   7  -2  -7    5.07    0.87
   7  -2  -7    5.21    0.57
   7  -2  -6  213.60    3.92
   7  -2  -6  173.04    3.40
   7  -2  -6  202.86    3.49
   7  -2  -6  206.32    3.60
   7  -2  -6  176.27    3.68
   7  -2  -5    2.91    0.65
   7  -2  -5    3.89    1.01
   7  -2  -5    3.80    0.98
   7  -2  -5    5.30    0.68
   7  -2  -5    4.34    1.33
   7  -2  -4  156.19    3.07
   7  -2  -4  159.90    3.06
   7  -2  -4  154.20    3.33
   7  -2  -3    5.94    1.26
   7  -2  -3    5.74    1.05
   7  -2  -3    6.35    0.86
   7  -2  -3    5.14    0.68
   7  -2  -3    6.13    1.11
   7  -2  -3    5.27    1.11
   7  -2  -2   25.73    1.10
   7  -2  -2   26.09    1.56
   7  -2  -2   25.37    1.37
   7  -2  -2   27.78    1.52
   7  -2  -2   28.46    1.33
   7  -2  -2   22.88    1.05
   7  -2  -2   28.44    1.43
   7  -2  -2   23.53    1.50
   7  -2  -1   -0.26    0.80
   7  -2  -1    0.06    0.97
   7  -2  -1    0.01    1.11
   7  -2  -1   -0.26    0.66
   7  -2  -1    0.11    0.82
   7  -2  -1    0.31    0.68
   7  -2  -1   -0.24    0.89
   7  -2  -1   -0.17    0.89
   7  -2  -1    0.01    1.00
   7  -2   0   75.42    2.28
   7  -2   0   73.78    2.24
   7  -2   0   65.80    2.08
   7  -2   0   64.17    1.97
   7  -2   0   73.64    2.15
   7  -2   0   71.36    1.82
   7  -2   0   76.41    2.16
   7  -2   0   76.42    2.01
   7  -2   0   70.16    1.96
   7  -2   0   75.88    2.16
   7  -2   0   74.52    2.30
   7  -2   1    4.12    0.92
   7  -2   1    4.51    1.00
   7  -2   1    3.04    0.90
   7  -2   1    4.11    1.10
   7  -2   1    3.78    0.73
   7  -2   1    3.65    0.95
   7  -2   1    3.95    0.86
   7  -2   1    3.89    0.80
   7  -2   1    3.36    0.98
   7  -2   1    3.41    1.07
   7  -2   2  130.06    2.95
   7  -2   2  127.73    3.04
   7  -2   2  118.42    2.70
   7  -2   2  130.64    2.77
   7  -2   2  134.95    2.80
   7  -2   2  130.88    2.92
   7  -2   2  132.07    2.85
   7  -2   2  123.19    2.91
   7  -2   2  113.41    2.47
   7  -2   2  133.54    2.99
   7  -2   3    3.85    0.92
   7  -2   3    4.77    0.91
   7  -2   3    2.90    0.76
   7  -2   3    2.34    0.72
   7  -2   3    2.75    0.80
   7  -2   3    3.75    0.88
   7  -2   3    2.46    0.90
   7  -2   3    3.19    0.87
   7  -2   3    3.75    1.00
   7  -2   4   35.26    1.41
   7  -2   4   34.20    1.53
   7  -2   4   30.13    1.42
   7  -2   4   30.65    1.20
   7  -2   4   36.45    1.47
   7  -2   4   33.63    1.42
   7  -2   4   34.19    1.43
   7  -2   4   33.79    1.51
   7  -2   4   35.86    1.52
   7  -2   4   32.36    1.26
   7  -2   5   72.38    1.91
   7  -2   5   71.45    2.14
   7  -2   5   65.67    2.05
   7  -2   5   61.92    1.65
   7  -2   5   77.85    2.10
   7  -2   5   73.74    2.13
   7  -2   5   69.12    1.93
   7  -2   5   70.07    2.14
   7  -2   5   74.65    1.88
   7  -2   5   73.32    1.97
   7  -2   6    2.67    0.75
   7  -2   6    2.42    0.77
   7  -2   6    2.16    0.64
   7  -2   6    1.89    0.75
   7  -2   6    2.29    0.81
   7  -2   6    2.13    0.64
   7  -2   6    2.63    0.85
   7  -2   6    2.57    0.86
   7  -2   6    2.70    0.82
   7  -2   6    2.15    0.68
   7  -2   6    2.40    0.88
   7  -2   6    2.17    1.04
   7  -2   6    2.07    0.79
   7  -2   7   26.57    1.01
   7  -2   7   29.65    1.49
   7  -2   7   28.88    1.49
   7  -2   7   30.63    1.33
   7  -2   7   27.01    1.12
   7  -2   7   28.23    1.16
   7  -2   7   29.40    1.40
   7  -2   7   29.43    1.44
   7  -2   7   32.04    1.44
   7  -2   7   31.65    1.28
   7  -2   8   84.76    2.48
   7  -2   8   85.42    2.55
   7  -2   8   85.91    2.14
   7  -2   8   81.74    2.00
   7  -2   8   80.76    1.91
   7  -2   8   76.28    1.99
   7  -2   8   83.28    2.39
   7  -2   8   86.97    2.20
   7  -2   8   89.95    2.05
   7  -2   8   84.40    2.26
   7  -2   9   21.02    1.21
   7  -2   9   23.11    1.08
   7  -2   9   21.14    1.41
   7  -2   9   23.33    1.44
   7  -2   9   19.30    1.00
   7  -2   9   22.38    1.20
   7  -2  10   48.88    1.52
   7  -2  10   64.51    2.40
   7  -2  10   58.66    1.96
   7  -2  10   50.58    1.47
   7  -2  11   75.42    1.83
   7  -2  11   74.67    1.72
   7  -2  11   72.78    1.95
   7  -2  11   75.75    2.07
   7  -2  12   23.61    1.05
   7  -2  12   23.89    1.35
   7  -2  12   22.68    1.01
   7  -2  13   45.47    1.29
   7  -2  13   44.97    1.40
   7  -2  13   46.81    1.24
   7  -2  14    3.41    0.48
   7  -2  14    3.45    0.50
   7  -2  15   64.22    1.22
   7  -2  15   63.30    1.17
   7  -1  -9    4.74    0.70
   7  -1  -9    5.08    0.43
   7  -1  -8    5.87    0.55
   7  -1  -8    5.94    0.96
   7  -1  -8    6.43    0.62
   7  -1  -8    3.69    0.77
   7  -1  -7   15.68    0.70
   7  -1  -7   22.58    1.01
   7  -1  -7   15.95    1.18
   7  -1  -7   19.98    0.89
   7  -1  -6    0.75    0.59
   7  -1  -6    2.66    0.60
   7  -1  -6    0.30    0.99
   7  -1  -6    1.03    0.82
   7  -1  -5  161.93    3.05
   7  -1  -5  147.28    3.48
   7  -1  -4    1.05    0.67
   7  -1  -4    2.04    0.61
   7  -1  -4    1.91    0.82
   7  -1  -3   69.39    1.61
   7  -1  -3   62.67    2.30
   7  -1  -3   71.66    2.12
   7  -1  -3   70.70    1.94
   7  -1  -3   62.57    1.76
   7  -1  -3   74.97    2.11
   7  -1  -3   65.93    2.29
   7  -1  -2   14.95    0.88
   7  -1  -2   14.47    1.50
   7  -1  -2   16.16    1.26
   7  -1  -2   15.77    1.12
   7  -1  -2   13.50    0.86
   7  -1  -2   15.26    1.19
   7  -1  -2   14.68    1.40
   7  -1  -1   44.97    1.78
   7  -1  -1   40.32    1.66
   7  -1  -1   42.96    1.88
   7  -1  -1   45.59    1.64
   7  -1  -1   46.22    1.45
   7  -1  -1   43.78    1.62
   7  -1  -1   41.43    1.86
   7  -1   0    0.26    0.78
   7  -1   0   -0.09    0.94
   7  -1   0    0.57    0.94
   7  -1   0    0.48    1.17
   7  -1   0    0.01    0.55
   7  -1   0   -0.11    0.85
   7  -1   0   -0.15    0.71
   7  -1   0    0.10    0.82
   7  -1   0    0.37    1.09
   7  -1   1   49.88    1.82
   7  -1   1   46.66    1.76
   7  -1   1   48.58    1.77
   7  -1   1   50.83    1.86
   7  -1   1   50.32    1.52
   7  -1   1   50.17    1.74
   7  -1   1   51.34    1.63
   7  -1   1   47.65    1.56
   7  -1   1   50.65    1.95
   7  -1   2   38.84    1.62
   7  -1   2   37.72    1.59
   7  -1   2   35.66    1.51
   7  -1   2   29.51    1.30
   7  -1   2   42.34    1.67
   7  -1   2   42.93    1.45
   7  -1   2   38.91    1.55
   7  -1   2   44.67    1.55
   7  -1   2   37.66    1.53
   7  -1   2   39.00    1.35
   7  -1   2   39.58    1.75
   7  -1   2   33.93    1.22
   7  -1   3  192.33    3.70
   7  -1   3  183.50    3.77
   7  -1   3  180.27    3.51
   7  -1   3  155.02    3.29
   7  -1   3  195.99    3.59
   7  -1   3  196.94    3.60
   7  -1   3  184.39    3.62
   7  -1   3  162.40    3.25
   7  -1   3  179.38    3.72
   7  -1   3  167.85    3.21
   7  -1   3  205.89    3.86
   7  -1   3  189.67    3.59
   7  -1   4    1.51    0.80
   7  -1   4    1.31    0.75
   7  -1   4    0.95    0.77
   7  -1   4    1.19    0.72
   7  -1   4    1.06    0.76
   7  -1   4    1.60    0.76
   7  -1   4    1.26    0.76
   7  -1   4    1.55    0.85
   7  -1   4    1.74    0.74
   7  -1   4    1.58    0.93
   7  -1   5  156.03    3.15
   7  -1   5  142.83    3.24
   7  -1   5  141.73    2.93
   7  -1   5  148.54    3.10
   7  -1   5  162.24    3.37
   7  -1   5  151.76    3.36
   7  -1   5  163.39    3.24
   7  -1   5  152.75    3.07
   7  -1   5  168.17    3.30
   7  -1   5  165.99    3.19
   7  -1   5  168.34    3.31
   7  -1   6   14.23    0.97
   7  -1   6   15.37    1.08
   7  -1   6   13.43    0.97
   7  -1   6   15.54    0.95
   7  -1   6   13.12    0.91
   7  -1   6   15.94    1.16
   7  -1   6   14.91    1.07
   7  -1   6   16.65    1.27
   7  -1   6   16.04    1.07
   7  -1   7   88.98    2.07
   7  -1   7   97.28    2.20
   7  -1   7  102.88    2.55
   7  -1   7   94.90    2.47
   7  -1   7  102.88    2.33
   7  -1   7  101.01    2.43
   7  -1   7   98.86    2.66
   7  -1   7   98.01    2.65
   7  -1   7  100.32    2.38
   7  -1   7   88.65    2.16
   7  -1   8   81.98    1.95
   7  -1   8   86.66    2.54
   7  -1   8   87.93    2.52
   7  -1   8   87.15    2.17
   7  -1   8   80.66    2.02
   7  -1   8   84.17    2.31
   7  -1   8   95.26    2.17
   7  -1   8   90.60    2.30
   7  -1   8   93.28    2.41
   7  -1   9   86.12    2.61
   7  -1   9   88.27    2.47
   7  -1   9   83.59    2.07
   7  -1   9   78.12    2.01
   7  -1   9   89.68    2.07
   7  -1   9   84.51    2.18
   7  -1   9   82.91    2.31
   7  -1  10   49.66    2.18
   7  -1  10   47.67    1.71
   7  -1  11   24.39    1.17
   7  -1  11   26.88    1.23
   7  -1  11   25.62    1.07
   7  -1  11   24.98    1.23
   7  -1  12   71.23    2.16
   7  -1  12   65.33    1.74
   7  -1  12   68.54    1.71
   7  -1  12   70.03    1.58
   7  -1  12   64.67    1.80
   7  -1  13   12.32    0.87
   7  -1  13   11.11    0.65
   7  -1  13   13.38    0.85
   7  -1  13   11.51    0.82
   7  -1  14   45.48    1.23
   7  -1  14   45.28    1.22
   7  -1  15    2.42    0.40
   7   0  -9    0.83    0.67
   7   0  -9    0.31    0.53
   7   0  -9    0.43    0.57
   7   0  -8    7.54    0.59
   7   0  -8    8.11    1.04
   7   0  -8    8.86    0.64
   7   0  -7   16.42    0.90
   7   0  -7   16.66    0.85
   7   0  -6   49.32    1.37
   7   0  -6   60.32    1.60
   7   0  -6   63.88    1.67
   7   0  -6   52.88    2.11
   7   0  -5    0.86    0.59
   7   0  -4   10.94    0.94
   7   0  -4   11.24    0.89
   7   0  -4   10.97    0.82
   7   0  -4   13.40    1.10
   7   0  -4   10.49    1.40
   7   0  -3    8.85    0.66
   7   0  -3    8.09    1.51
   7   0  -3    8.03    0.96
   7   0  -3    7.67    0.90
   7   0  -3    8.85    0.78
   7   0  -3    7.71    1.31
   7   0  -3    8.61    1.07
   7   0  -2   89.17    1.95
   7   0  -2   83.35    2.56
   7   0  -2   84.12    2.31
   7   0  -2   86.37    2.20
   7   0  -2   75.23    1.96
   7   0  -2   89.55    2.27
   7   0  -2   80.76    2.61
   7   0  -1    0.92    0.81
   7   0  -1    1.30    0.92
   7   0  -1    1.63    1.30
   7   0  -1    0.87    0.82
   7   0  -1    1.79    0.66
   7   0  -1    0.87    0.89
   7   0  -1    1.19    1.17
   7   0   0  114.28    2.76
   7   0   0  101.12    2.66
   7   0   0  104.35    2.77
   7   0   0  111.31    2.83
   7   0   0  107.27    2.28
   7   0   0  111.60    2.63
   7   0   0  115.44    2.44
   7   0   0  109.69    2.52
   7   0   0  112.02    2.97
   7   0   1    9.72    1.09
   7   0   1    9.05    1.00
   7   0   1   10.60    1.14
   7   0   1    9.53    1.32
   7   0   1    9.67    0.78
   7   0   1   10.65    1.02
   7   0   1    9.95    1.64
   7   0   1    9.09    0.90
   7   0   1   10.08    0.97
   7   0   1    9.39    1.30
   7   0   2  228.41    4.27
   7   0   2  211.41    4.24
   7   0   2  220.17    4.21
   7   0   2  198.36    4.06
   7   0   2  213.88    4.28
   7   0   2  235.92    4.25
   7   0   2  230.66    4.01
   7   0   2  222.26    4.16
   7   0   2  241.59    6.42
   7   0   2  233.15    4.08
   7   0   2  205.69    3.76
   7   0   2  216.02    3.91
   7   0   2  235.54    4.48
   7   0   3    0.01    0.72
   7   0   3    0.47    0.74
   7   0   3    0.51    0.82
   7   0   3    0.53    0.80
   7   0   3    0.95    0.73
   7   0   3    0.19    0.72
   7   0   3    0.63    1.07
   7   0   3    0.89    0.69
   7   0   3    0.17    0.74
   7   0   3    0.83    0.78
   7   0   3    0.45    0.77
   7   0   3   -0.36    1.20
   7   0   3    0.08    0.68
   7   0   3    0.71    0.68
   7   0   3    0.13    1.03
   7   0   4   34.25    1.41
   7   0   4   30.98    1.36
   7   0   4   30.19    1.28
   7   0   4   32.72    1.33
   7   0   4   30.01    1.25
   7   0   4   31.02    1.37
   7   0   4   29.43    1.45
   7   0   4   34.69    1.36
   7   0   4   28.90    1.42
   7   0   4   32.60    1.35
   7   0   4   34.27    1.44
   7   0   4   30.35    1.38
   7   0   4   32.77    1.44
   7   0   4   34.61    1.34
   7   0   4   34.48    1.58
   7   0   4   33.21    2.40
   7   0   4   32.11    1.33
   7   0   5   23.46    2.08
   7   0   5   23.19    1.15
   7   0   5   21.38    1.15
   7   0   5   17.30    1.00
   7   0   5   18.25    1.08
   7   0   5   17.80    0.98
   7   0   5   19.16    1.05
   7   0   5   21.14    1.16
   7   0   5   19.45    1.08
   7   0   5   22.11    1.26
   7   0   5   20.32    1.16
   7   0   5   21.37    1.32
   7   0   5   21.84    1.17
   7   0   5   22.86    1.33
   7   0   6   79.23    3.36
   7   0   6   72.97    1.85
   7   0   6   61.96    1.70
   7   0   6   69.21    1.83
   7   0   6   59.86    1.63
   7   0   6   76.07    1.99
   7   0   6   57.83    1.57
   7   0   6   61.65    1.73
   7   0   6   73.55    2.12
   7   0   6   68.15    1.98
   7   0   6   76.62    2.08
   7   0   6   76.97    1.98
   7   0   7    0.74    0.64
   7   0   7    0.96    0.61
   7   0   7    0.43    0.51
   7   0   7    0.85    0.84
   7   0   7    1.12    0.75
   7   0   7    0.11    0.56
   7   0   7    1.71    0.88
   7   0   7    0.70    0.63
   7   0   7    1.60    1.04
   7   0   8   75.03    1.78
   7   0   8   60.61    1.69
   7   0   8   64.01    1.60
   7   0   8   65.28    1.66
   7   0   8   75.20    2.01
   7   0   8   78.94    2.15
   7   0   8   81.18    2.02
   7   0   8   83.29    2.27
   7   0   8   77.91    2.31
   7   0   8   79.33    2.23
   7   0   8   81.59    2.03
   7   0   8   71.96    1.83
   7   0   9   24.87    0.96
   7   0   9   21.30    1.00
   7   0   9   23.36    0.99
   7   0   9   27.19    1.47
   7   0   9   28.09    1.35
   7   0   9   27.28    1.18
   7   0   9   25.94    1.09
   7   0   9   29.74    1.45
   7   0   9   28.16    1.42
   7   0   9   29.09    1.27
   7   0  10   34.74    1.25
   7   0  10   37.65    1.21
   7   0  10   42.45    1.65
   7   0  10   47.09    1.47
   7   0  10   43.36    1.59
   7   0  10   49.76    1.94
   7   0  10   45.67    1.60
   7   0  10   39.53    1.36
   7   0  11   37.59    1.32
   7   0  11   43.38    1.47
   7   0  12   40.52    1.49
   7   0  12   41.69    1.43
   7   0  12   43.37    1.27
   7   0  12   44.28    1.62
   7   0  12   39.74    1.30
   7   0  13   45.84    1.47
   7   0  13   47.79    1.38
   7   0  13   45.67    1.19
   7   0  13   48.29    1.45
   7   0  13   43.91    1.21
   7   0  14    4.51    0.64
   7   0  14    5.70    0.68
   7   0  14    5.00    0.55
   7   0  15   63.53    1.39
   7   0  16    2.95    0.31
   7   1  -9    9.64    0.66
   7   1  -9    7.95    0.76
   7   1  -8   14.28    0.73
   7   1  -8   12.58    1.10
   7   1  -8   12.83    0.67
   7   1  -7   37.29    1.20
   7   1  -7   37.42    1.75
   7   1  -7   38.89    1.18
   7   1  -6    3.06    1.47
   7   1  -6    4.78    0.77
   7   1  -6    4.44    0.65
   7   1  -5   24.08    1.08
   7   1  -5   19.72    0.94
   7   1  -4   11.49    0.89
   7   1  -4   10.44    0.85
   7   1  -4   10.70    0.81
   7   1  -4   12.73    1.04
   7   1  -4   10.47    1.55
   7   1  -3   17.93    1.66
   7   1  -3   17.25    1.07
   7   1  -3   16.89    1.06
   7   1  -3   15.95    0.94
   7   1  -3   20.15    1.21
   7   1  -3   16.14    1.60
   7   1  -2    2.91    0.59
   7   1  -2    3.36    1.40
   7   1  -2    2.83    0.85
   7   1  -2    3.15    0.83
   7   1  -2    2.67    0.59
   7   1  -2    2.98    1.27
   7   1  -2    3.04    0.94
   7   1  -1  103.63    2.54
   7   1  -1  103.15    2.79
   7   1  -1  105.99    2.48
   7   1  -1  100.73    3.89
   7   1  -1   99.40    2.19
   7   1  -1  104.35    2.45
   7   1   0    5.57    0.98
   7   1   0    5.67    1.13
   7   1   0    7.44    1.38
   7   1   0    6.05    0.93
   7   1   0    7.28    0.78
   7   1   0    6.92    1.52
   7   1   0    6.39    0.96
   7   1   0    5.61    1.28
   7   1   1   69.33    2.05
   7   1   1   60.22    1.95
   7   1   1   68.31    2.15
   7   1   1   71.13    2.24
   7   1   1   64.62    1.71
   7   1   1   68.82    1.99
   7   1   1   76.47    3.53
   7   1   1   71.38    1.84
   7   1   1   66.27    1.86
   7   1   1   70.59    2.33
   7   1   2   20.42    1.26
   7   1   2   17.02    1.10
   7   1   2   18.84    1.29
   7   1   2   20.59    1.47
   7   1   2   18.16    0.98
   7   1   2   19.32    1.17
   7   1   2   19.31    2.07
   7   1   2   18.27    1.07
   7   1   2   17.65    1.06
   7   1   2   16.41    0.95
   7   1   2   18.84    1.47
   7   1   3  103.28    2.46
   7   1   3   89.68    2.34
   7   1   3   87.70    2.36
   7   1   3   99.76    2.45
   7   1   3   90.96    2.36
   7   1   3   95.93    2.50
   7   1   3  105.84    2.54
   7   1   3  100.14    2.26
   7   1   3   97.58    2.36
   7   1   3   81.78    2.14
   7   1   3   93.83    2.24
   7   1   3   93.80    2.15
   7   1   3  100.17    2.62
   7   1   3   91.04    2.18
   7   1   3  111.46    4.30
   7   1   3  103.44    2.30
   7   1   4    0.28    0.73
   7   1   4    0.14    1.28
   7   1   4    0.59    0.64
   7   1   4   -0.22    0.72
   7   1   4   -0.07    0.79
   7   1   4    0.26    0.77
   7   1   4    0.14    0.74
   7   1   4    0.12    0.78
   7   1   4   -0.05    0.69
   7   1   4    0.60    0.74
   7   1   4    0.30    0.66
   7   1   4    0.09    0.71
   7   1   4    0.29    0.75
   7   1   4    0.32    0.89
   7   1   4    0.64    0.64
   7   1   4   -0.31    0.96
   7   1   5  119.31    4.40
   7   1   5  110.66    2.41
   7   1   5  111.66    2.49
   7   1   5   98.70    2.41
   7   1   5   97.44    2.34
   7   1   5  107.40    2.43
   7   1   5  106.50    2.70
   7   1   5  106.22    2.53
   7   1   5  115.50    2.51
   7   1   5  101.84    2.66
   7   1   5   99.66    2.35
   7   1   5   92.61    2.26
   7   1   5  108.03    2.60
   7   1   5  100.62    2.46
   7   1   5  110.33    2.48
   7   1   5  112.58    2.56
   7   1   5  113.58    2.64
   7   1   6   24.45    2.12
   7   1   6   23.65    1.10
   7   1   6   21.18    1.10
   7   1   6   25.25    1.16
   7   1   6   20.32    1.03
   7   1   6   25.01    1.20
   7   1   6   20.46    1.03
   7   1   6   19.73    1.04
   7   1   6   26.16    1.34
   7   1   6   22.61    1.12
   7   1   6   27.56    1.31
   7   1   6   25.33    1.39
   7   1   7  246.94    6.24
   7   1   7  229.04    3.84
   7   1   7  181.67    3.70
   7   1   7  204.49    3.80
   7   1   7  198.14    3.70
   7   1   7  235.38    4.06
   7   1   7  201.80    3.73
   7   1   7  236.37    4.33
   7   1   7  213.24    3.96
   7   1   7  237.31    4.09
   7   1   7  236.07    4.18
   7   1   8   77.69    1.82
   7   1   8   64.62    1.82
   7   1   8   67.56    1.73
   7   1   8   85.46    2.36
   7   1   8   83.01    2.06
   7   1   8   79.38    2.21
   7   1   8   73.40    1.89
   7   1   8   68.87    1.80
   7   1   8   82.84    2.29
   7   1   8   87.40    2.16
   7   1   8   85.81    2.28
   7   1   9   51.15    1.38
   7   1   9   47.94    1.51
   7   1   9   48.00    1.37
   7   1   9   50.41    1.46
   7   1   9   61.76    2.00
   7   1   9   57.47    1.66
   7   1   9   56.49    1.80
   7   1   9   53.46    1.53
   7   1   9   59.46    1.96
   7   1   9   59.96    1.92
   7   1   9   63.38    1.79
   7   1  10   58.96    1.72
   7   1  10   65.20    1.67
   7   1  10   74.99    2.23
   7   1  10   72.26    2.06
   7   1  10   76.00    1.94
   7   1  10   78.36    2.25
   7   1  10   71.25    1.98
   7   1  10   66.72    1.77
   7   1  11   17.55    1.01
   7   1  11   19.14    0.99
   7   1  12   44.89    1.21
   7   1  12   57.22    1.72
   7   1  12   51.67    1.44
   7   1  12   57.19    1.50
   7   1  12   56.96    1.68
   7   1  12   56.98    1.83
   7   1  12   47.21    1.48
   7   1  13   40.02    1.30
   7   1  13   41.50    1.37
   7   1  13   39.47    1.15
   7   1  13   38.28    1.42
   7   1  14   52.14    1.32
   7   1  14   50.95    1.48
   7   1  15    0.51    0.48
   7   1  15    0.90    0.51
   7   1  16   39.43    0.89
   7   2  -9    0.53    0.43
   7   2  -9    1.08    0.58
   7   2  -9    1.71    0.62
   7   2  -8   14.08    0.88
   7   2  -8   16.39    1.08
   7   2  -8   16.75    0.77
   7   2  -7    5.03    1.20
   7   2  -7    6.67    0.66
   7   2  -7    6.02    1.17
   7   2  -7    6.06    0.64
   7   2  -6   36.91    1.22
   7   2  -6   37.14    1.86
   7   2  -6   33.43    1.22
   7   2  -5    3.80    0.66
   7   2  -4   14.83    1.03
   7   2  -4   13.29    1.75
   7   2  -4   11.97    0.86
   7   2  -4   15.27    1.63
   7   2  -3   13.27    1.56
   7   2  -3   10.61    0.89
   7   2  -3   11.65    0.94
   7   2  -3   12.06    0.85
   7   2  -3   14.22    1.09
   7   2  -3   10.74    1.51
   7   2  -2   80.97    2.09
   7   2  -2   85.74    2.56
   7   2  -2   81.29    2.12
   7   2  -2   76.64    3.35
   7   2  -2   78.86    1.80
   7   2  -2   87.61    2.17
   7   2  -2   76.49    2.60
   7   2  -1    2.07    0.80
   7   2  -1    2.13    1.10
   7   2  -1    3.17    1.36
   7   2  -1    2.68    0.82
   7   2  -1    2.78    0.63
   7   2  -1    3.14    1.30
   7   2  -1    2.97    0.91
   7   2  -1    2.30    1.21
   7   2   0   98.87    2.42
   7   2   0   96.07    2.64
   7   2   0   99.18    2.70
   7   2   0   96.56    2.37
   7   2   0   96.06    4.04
   7   2   0   96.76    2.15
   7   2   0   96.69    2.32
   7   2   0   89.03    2.70
   7   2   1    1.10    0.82
   7   2   1    0.84    1.01
   7   2   1    1.27    1.28
   7   2   1    1.51    0.82
   7   2   1    2.20    0.70
   7   2   1    1.98    1.40
   7   2   1    1.46    0.82
   7   2   1    1.19    1.11
   7   2   2  172.53    3.43
   7   2   2  174.39    3.57
   7   2   2  184.09    3.60
   7   2   2  167.27    3.34
   7   2   2  147.45    3.29
   7   2   2  183.38    5.78
   7   2   2  172.11    3.22
   7   2   2  171.61    3.23
   7   2   2  175.10    3.73
   7   2   2  146.08    3.05
   7   2   3    4.54    0.94
   7   2   3    3.42    0.71
   7   2   3    4.49    0.97
   7   2   3    4.34    0.94
   7   2   3    6.10    0.92
   7   2   3    5.73    1.26
   7   2   3    4.79    0.73
   7   2   3    3.84    0.86
   7   2   3    4.48    0.83
   7   2   3    5.88    0.82
   7   2   3    7.79    1.72
   7   2   3    4.84    0.89
   7   2   3    4.99    0.84
   7   2   3    6.56    1.14
   7   2   4  186.94    3.52
   7   2   4  152.56    3.29
   7   2   4  171.34    3.57
   7   2   4  181.18    3.54
   7   2   4  173.36    3.51
   7   2   4  179.91    3.64
   7   2   4  175.78    3.37
   7   2   4  161.28    3.39
   7   2   4  165.78    3.35
   7   2   4  178.58    3.48
   7   2   4  180.29    3.39
   7   2   4  182.95    3.47
   7   2   4  177.88    3.65
   7   2   4  196.44    6.00
   7   2   4  184.61    3.36
   7   2   5   67.78    3.47
   7   2   5   61.37    1.70
   7   2   5   57.43    1.83
   7   2   5   66.91    1.84
   7   2   5   60.62    1.80
   7   2   5   56.10    1.76
   7   2   5   54.78    1.77
   7   2   5   56.55    1.87
   7   2   5   59.74    1.74
   7   2   5   53.55    1.64
   7   2   5   54.77    1.74
   7   2   5   62.39    1.87
   7   2   5   61.90    1.88
   7   2   5   57.43    1.89
   7   2   5   61.11    1.86
   7   2   6  103.94    4.12
   7   2   6   93.44    2.10
   7   2   6   81.91    2.15
   7   2   6   73.82    2.00
   7   2   6   86.75    2.13
   7   2   6   81.31    2.07
   7   2   6   87.80    2.13
   7   2   6   93.31    2.20
   7   2   6   75.49    1.94
   7   2   6   83.71    2.11
   7   2   6   96.19    2.39
   7   2   6   90.19    2.30
   7   2   6   96.16    2.36
   7   2   7   26.96    2.25
   7   2   7   26.39    1.12
   7   2   7   26.30    1.22
   7   2   7   24.96    1.16
   7   2   7   26.79    1.14
   7   2   7   27.74    1.25
   7   2   7   26.23    1.20
   7   2   7   30.65    1.45
   7   2   7   29.31    1.49
   7   2   7   31.13    1.43
   7   2   8  120.03    4.30
   7   2   8  116.59    2.40
   7   2   8  104.60    2.54
   7   2   8  111.12    2.41
   7   2   8  131.58    2.94
   7   2   8  123.97    2.81
   7   2   8  116.79    2.50
   7   2   8  114.02    2.49
   7   2   8  130.56    2.98
   7   2   8  135.90    2.95
   7   2   8  135.13    2.84
   7   2   9   12.98    0.92
   7   2   9   12.86    0.82
   7   2   9   13.42    0.92
   7   2   9   13.88    1.04
   7   2   9   14.59    0.96
   7   2   9   12.96    0.83
   7   2   9   15.93    1.20
   7   2   9   13.30    0.95
   7   2   9   16.70    1.18
   7   2   9   16.21    1.32
   7   2  10   41.06    1.45
   7   2  10   43.50    1.39
   7   2  10   50.28    1.70
   7   2  10   46.97    1.53
   7   2  10   47.51    1.44
   7   2  10   52.87    1.67
   7   2  10   51.34    1.80
   7   2  10   49.73    1.88
   7   2  11   44.79    1.54
   7   2  11   38.77    1.32
   7   2  12   16.99    0.94
   7   2  12   18.73    0.91
   7   2  12   22.14    1.40
   7   2  12   18.65    1.03
   7   2  12   23.76    1.06
   7   2  12   24.74    1.29
   7   2  12   22.57    1.05
   7   2  13    6.43    0.56
   7   2  13    7.08    0.94
   7   2  13    6.14    0.78
   7   2  13    6.08    0.68
   7   2  13    8.43    0.95
   7   2  13    6.83    0.64
   7   2  14   32.50    0.89
   7   2  14   36.76    0.98
   7   2  14   35.44    1.26
   7   2  14   31.86    1.13
   7   2  14   29.71    0.92
   7   2  15   45.13    1.25
   7   2  15   51.96    1.21
   7   2  16   13.05    0.54
   7   3  -9    0.33    0.50
   7   3  -9    0.46    0.52
   7   3  -9    0.47    0.31
   7   3  -8    7.65    0.92
   7   3  -8    7.72    0.69
   7   3  -7   10.17    1.10
   7   3  -7    7.59    1.17
   7   3  -7    9.39    0.70
   7   3  -7    8.42    0.85
   7   3  -6   32.17    1.18
   7   3  -6   34.31    1.13
   7   3  -6   32.98    2.02
   7   3  -6   33.67    1.60
   7   3  -6   35.40    1.59
   7   3  -5   12.03    0.86
   7   3  -5   14.32    0.93
   7   3  -5   13.49    1.93
   7   3  -5   13.32    1.43
   7   3  -5   15.17    1.45
   7   3  -4   36.97    1.34
   7   3  -4   41.42    1.89
   7   3  -3   99.60    2.72
   7   3  -3   94.13    2.14
   7   3  -2   18.68    1.03
   7   3  -2   18.04    1.39
   7   3  -2   20.09    1.61
   7   3  -2   18.22    1.80
   7   3  -2   22.79    1.21
   7   3  -2   17.21    1.53
   7   3  -1  145.17    2.97
   7   3  -1  143.74    3.31
   7   3  -1  148.52    3.35
   7   3  -1  138.38    2.95
   7   3  -1  136.98    4.80
   7   3  -1  147.11    2.97
   7   3  -1  133.19    3.41
   7   3   0    4.83    0.84
   7   3   0    6.27    1.16
   7   3   0    6.04    1.36
   7   3   0    5.41    0.88
   7   3   0    6.12    0.73
   7   3   0    8.69    1.70
   7   3   0    6.24    0.96
   7   3   0    4.93    1.22
   7   3   1  158.02    3.20
   7   3   1  158.07    3.46
   7   3   1  162.49    3.44
   7   3   1  146.46    3.12
   7   3   1  165.78    5.56
   7   3   1  152.80    2.95
   7   3   1  155.69    3.09
   7   3   1  142.51    3.45
   7   3   2   21.92    1.18
   7   3   2   22.17    1.37
   7   3   2   19.50    1.50
   7   3   2   18.64    1.13
   7   3   2   18.17    2.21
   7   3   2   16.55    1.00
   7   3   2   16.59    1.06
   7   3   2   18.66    1.41
   7   3   3  173.86    3.36
   7   3   3  169.41    3.45
   7   3   3  165.24    3.51
   7   3   3  160.05    3.52
   7   3   3  178.30    3.50
   7   3   3  155.43    3.20
   7   3   3  149.61    3.38
   7   3   3  189.17    6.05
   7   3   3  164.99    3.15
   7   3   3  178.99    3.43
   7   3   3  145.66    3.16
   7   3   3  164.58    3.53
   7   3   4   24.61    1.41
   7   3   4   26.73    1.28
   7   3   4   27.04    1.36
   7   3   4   27.03    1.38
   7   3   4   29.84    1.38
   7   3   4   25.44    1.39
   7   3   4   24.28    1.16
   7   3   4   26.29    1.21
   7   3   4   28.46    1.29
   7   3   4   30.26    1.49
   7   3   4   28.75    1.35
   7   3   4   36.03    2.83
   7   3   4   32.41    1.24
   7   3   4   33.03    1.35
   7   3   5  153.55    5.35
   7   3   5  141.23    2.77
   7   3   5  146.25    2.98
   7   3   5  133.62    3.01
   7   3   5  139.37    2.90
   7   3   5  140.43    2.95
   7   3   5  138.42    2.97
   7   3   5  132.81    2.95
   7   3   5  117.66    2.68
   7   3   5  128.90    2.94
   7   3   5  137.72    2.92
   7   3   5  142.35    2.94
   7   3   5  131.60    2.96
   7   3   5  138.01    2.99
   7   3   6    5.50    0.76
   7   3   6    6.74    1.65
   7   3   6    4.97    0.88
   7   3   6    4.61    0.81
   7   3   6    5.45    1.03
   7   3   6    4.39    0.90
   7   3   6    5.12    0.84
   7   3   6    5.20    1.09
   7   3   7  206.18    6.05
   7   3   7  179.00    3.34
   7   3   7  172.65    3.51
   7   3   7  177.11    3.44
   7   3   7  178.13    3.53
   7   3   7  194.16    3.81
   7   3   7  194.79    3.80
   7   3   7  204.82    3.82
   7   3   8   23.58    2.15
   7   3   8   25.57    1.18
   7   3   8   21.59    1.18
   7   3   8   23.52    1.08
   7   3   8   26.36    1.27
   7   3   8   23.80    1.05
   7   3   8   22.80    1.17
   7   3   8   27.18    1.39
   7   3   8   27.36    1.43
   7   3   8   26.18    1.52
   7   3   9  211.47    4.15
   7   3   9  220.20    3.90
   7   3   9  259.27    4.39
   7   3   9  223.47    3.96
   7   3   9  221.30    3.99
   7   3   9  235.04    4.54
   7   3   9  199.87    3.99
   7   3   9  257.54    4.41
   7   3   9  263.16    4.53
   7   3  10   81.80    2.16
   7   3  10   83.00    1.93
   7   3  10   83.35    2.02
   7   3  10  100.44    2.30
   7   3  10   80.35    1.99
   7   3  10   93.23    2.65
   7   3  10   99.37    2.51
   7   3  10   99.29    2.37
   7   3  11   47.85    1.39
   7   3  11   40.66    1.46
   7   3  12   49.73    2.23
   7   3  12   51.90    1.71
   7   3  12   49.34    1.51
   7   3  12   48.44    1.42
   7   3  13   19.73    0.79
   7   3  13   18.53    0.93
   7   3  13   19.30    0.94
   7   3  13   20.14    1.32
   7   3  13   18.63    1.01
   7   3  14   23.00    0.77
   7   3  14   22.84    1.10
   7   3  14   20.97    0.98
   7   3  15   11.01    0.54
   7   3  15   10.88    0.71
   7   3  16   30.28    0.81
   7   4  -9   10.28    0.60
   7   4  -8    2.55    0.67
   7   4  -8    2.31    0.70
   7   4  -8    1.83    0.46
   7   4  -7   58.84    1.59
   7   4  -7   50.76    1.73
   7   4  -7   60.64    1.46
   7   4  -7   46.11    1.39
   7   4  -6   22.69    1.52
   7   4  -6   24.04    1.33
   7   4  -6   24.02    1.15
   7   4  -5   74.08    2.53
   7   4  -5   76.82    2.16
   7   4  -4    2.08    1.46
   7   4  -4    2.07    0.90
   7   4  -3   12.32    1.36
   7   4  -3   14.12    1.43
   7   4  -3   11.83    1.15
   7   4  -3   10.61    0.74
   7   4  -3   14.20    0.99
   7   4  -3   10.80    1.36
   7   4  -2   31.67    1.68
   7   4  -2   34.58    1.59
   7   4  -2   33.51    1.20
   7   4  -2   34.08    1.35
   7   4  -2   29.35    1.70
   7   4  -1   82.78    2.07
   7   4  -1   93.24    2.52
   7   4  -1   84.60    2.43
   7   4  -1   94.71    4.04
   7   4  -1   97.68    2.24
   7   4  -1   83.60    2.56
   7   4   0  132.73    2.81
   7   4   0  141.49    3.17
   7   4   0  139.19    3.17
   7   4   0  143.10    5.17
   7   4   0  131.15    2.87
   7   4   0  129.93    3.21
   7   4   1    1.35    0.73
   7   4   1    0.94    1.21
   7   4   1    1.07    0.99
   7   4   1    2.04    1.46
   7   4   1    1.34    0.72
   7   4   1    1.19    1.04
   7   4   2  120.28    2.69
   7   4   2  120.59    2.89
   7   4   2  135.30    2.98
   7   4   2  130.20    5.02
   7   4   2  128.09    2.84
   7   4   2  113.51    2.91
   7   4   3    0.56    0.73
   7   4   3    0.68    0.93
   7   4   3    0.54    0.92
   7   4   3    0.42    0.79
   7   4   3    0.39    1.16
   7   4   3    0.55    0.98
   7   4   3   -0.03    0.66
   7   4   3    0.34    1.43
   7   4   3    0.58    0.72
   7   4   3    0.63    0.94
   7   4   4  183.27    3.83
   7   4   4  192.15    3.59
   7   4   4  191.71    3.70
   7   4   4  191.07    3.79
   7   4   4  176.01    3.68
   7   4   4  162.98    3.55
   7   4   4  180.96    3.79
   7   4   4  203.75    6.39
   7   4   4  186.52    3.40
   7   4   4  199.64    3.76
   7   4   4  176.12    3.66
   7   4   5   28.52    1.41
   7   4   5   30.65    1.38
   7   4   5   29.00    1.38
   7   4   5   25.27    1.39
   7   4   5   25.81    1.41
   7   4   5   28.14    1.20
   7   4   5   29.24    1.39
   7   4   5   25.77    1.33
   7   4   5   26.24    2.53
   7   4   5   29.06    1.32
   7   4   6   85.15    3.97
   7   4   6   82.82    2.11
   7   4   6   71.66    2.06
   7   4   6   74.74    2.03
   7   4   6   75.43    2.21
   7   4   6   70.41    2.08
   7   4   6   68.78    1.95
   7   4   6   62.58    1.77
   7   4   6   79.82    2.16
   7   4   7   27.11    2.48
   7   4   7   26.66    1.22
   7   4   7   27.42    1.29
   7   4   7   25.43    1.20
   7   4   7   28.86    1.48
   7   4   7   23.37    1.28
   7   4   7   26.26    1.28
   7   4   7   21.85    1.10
   7   4   7   30.66    1.53
   7   4   8  201.53    6.02
   7   4   8  188.19    3.61
   7   4   8  184.63    3.50
   7   4   8  204.18    3.72
   7   4   8  184.82    3.46
   7   4   8  220.42    3.99
   7   4   8  185.45    3.61
   7   4   8  199.14    3.89
   7   4   8  167.03    3.36
   7   4   8  210.97    3.99
   7   4   9    4.98    0.86
   7   4   9    5.37    0.73
   7   4   9    4.58    1.07
   7   4   9    2.81    0.57
   7   4   9    4.13    0.67
   7   4   9    4.30    0.82
   7   4   9    4.14    0.82
   7   4   9    5.29    0.94
   7   4   9    4.51    1.23
   7   4  10   62.86    1.90
   7   4  10   62.92    1.66
   7   4  10   64.23    1.75
   7   4  10   72.23    1.82
   7   4  10   64.13    1.66
   7   4  10   64.77    2.21
   7   4  10   72.05    2.23
   7   4  10   76.86    2.10
   7   4  11   15.55    1.05
   7   4  11   18.61    0.97
   7   4  12   91.48    3.22
   7   4  12   87.31    2.06
   7   4  12   89.93    2.27
   7   4  13   22.62    0.85
   7   4  13   21.08    0.99
   7   4  13   23.35    1.37
   7   4  13   19.77    1.05
   7   4  13   22.14    1.01
   7   4  13   20.97    0.94
   7   4  14   24.60    0.79
   7   4  14   21.09    0.91
   7   4  14   19.81    0.83
   7   4  14   22.74    1.07
   7   4  14   21.90    1.00
   7   4  15    8.31    0.51
   7   4  15    8.08    0.62
   7   4  15    6.82    0.64
   7   4  16   37.23    0.82
   7   4  16   26.87    0.76
   7   5  -8   19.57    0.86
   7   5  -8   25.86    0.74
   7   5  -7    2.37    0.75
   7   5  -7    1.75    0.71
   7   5  -7    1.72    0.50
   7   5  -6   39.87    1.56
   7   5  -6   42.89    1.41
   7   5  -5   60.31    2.04
   7   5  -5   65.89    1.86
   7   5  -5   61.56    1.75
   7   5  -4   61.42    2.14
   7   5  -4   67.93    2.00
   7   5  -3   16.60    1.51
   7   5  -3   14.96    1.13
   7   5  -2   11.45    1.29
   7   5  -2   10.79    1.11
   7   5  -2   10.84    0.73
   7   5  -2   11.50    1.21
   7   5  -1   29.97    1.15
   7   5  -1   32.85    1.61
   7   5  -1   34.01    1.53
   7   5  -1   30.30    2.45
   7   5  -1   29.60    1.24
   7   5  -1   28.40    1.56
   7   5   0   21.15    1.02
   7   5   0   20.97    1.47
   7   5   0   22.19    1.33
   7   5   0   23.74    2.36
   7   5   0   19.95    1.14
   7   5   0   19.16    1.37
   7   5   1   88.25    2.14
   7   5   1   94.22    2.46
   7   5   1   94.05    2.43
   7   5   1   93.74    4.23
   7   5   1   96.51    2.38
   7   5   1   86.38    2.46
   7   5   2    8.00    0.84
   7   5   2    8.63    1.07
   7   5   2    7.65    1.07
   7   5   2    8.56    1.86
   7   5   2    7.34    0.92
   7   5   2    8.65    1.24
   7   5   3   39.51    1.57
   7   5   3   36.03    1.67
   7   5   3   35.50    1.51
   7   5   3   38.84    2.98
   7   5   3   37.07    1.51
   7   5   4   42.68    3.08
   7   5   4   43.46    1.61
   7   5   4   40.84    1.73
   7   5   4   42.94    1.61
   7   5   4   40.76    1.70
   7   5   4   36.97    1.55
   7   5   4   41.35    1.77
   7   5   4   34.88    1.42
   7   5   4   38.75    1.53
   7   5   5   29.37    2.62
   7   5   5   28.45    1.34
   7   5   5   30.32    1.50
   7   5   5   31.14    1.38
   7   5   5   30.71    1.42
   7   5   5   26.69    1.43
   7   5   5   28.16    1.49
   7   5   5   23.04    1.20
   7   5   5   28.42    1.32
   7   5   5   24.87    1.25
   7   5   6   14.95    2.07
   7   5   6   15.28    1.06
   7   5   6   16.91    1.19
   7   5   6   16.17    1.11
   7   5   6   14.44    1.28
   7   5   6   15.68    1.22
   7   5   6   13.01    1.02
   7   5   6   16.02    1.21
   7   5   7   70.76    3.72
   7   5   7   71.77    1.98
   7   5   7   69.71    1.99
   7   5   7   70.27    1.91
   7   5   7   71.80    2.21
   7   5   7   66.63    1.76
   7   5   7   70.14    2.04
   7   5   7   72.90    2.15
   7   5   8    3.21    1.45
   7   5   8    2.93    0.71
   7   5   8    2.87    0.80
   7   5   8    3.53    0.75
   7   5   8    2.99    1.07
   7   5   8    2.75    0.56
   7   5   8    2.85    0.86
   7   5   8    2.88    0.75
   7   5   8    2.04    0.79
   7   5   8    3.74    1.18
   7   5   9  274.26    4.56
   7   5   9  309.94    5.11
   7   5   9  257.03    4.40
   7   5   9  271.88    4.64
   7   5   9  278.97    4.93
   7   5   9  237.10    4.59
   7   5   9  249.73    4.46
   7   5   9  316.43    5.25
   7   5  10    6.90    0.74
   7   5  10    6.13    0.81
   7   5  10    6.09    0.86
   7   5  10    8.04    1.31
   7   5  10    5.90    1.06
   7   5  11   40.31    1.72
   7   5  11   36.58    1.41
   7   5  12   12.17    0.89
   7   5  12   16.52    1.31
   7   5  12   11.17    0.98
   7   5  12   14.72    1.27
   7   5  12   13.25    1.04
   7   5  12   12.03    0.83
   7   5  13   48.81    1.23
   7   5  13   41.65    1.36
   7   5  13   48.02    1.65
   7   5  13   43.74    1.43
   7   5  13   47.21    1.40
   7   5  13   45.11    1.30
   7   5  14   13.76    0.66
   7   5  14   12.61    0.75
   7   5  14   11.46    0.83
   7   5  15   46.40    0.97
   7   5  15   41.44    1.13
   7   5  16    6.83    0.49
   7   6  -7    9.43    0.70
   7   6  -7   11.05    0.60
   7   6  -6   14.71    0.94
   7   6  -6   13.70    0.72
   7   6  -5   13.54    1.05
   7   6  -5   12.78    0.83
   7   6  -4    9.74    1.03
   7   6  -4   11.68    1.05
   7   6  -4   10.77    0.88
   7   6  -3   22.89    1.33
   7   6  -3   33.05    1.66
   7   6  -2   10.77    0.98
   7   6  -1  103.99    2.50
   7   6  -1  103.90    2.49
   7   6  -1  109.46    2.41
   7   6   0   10.51    1.11
   7   6   0   12.70    1.22
   7   6   0   15.18    1.12
   7   6   0   12.29    0.85
   7   6   0    9.95    1.82
   7   6   0   10.62    0.94
   7   6   1  112.26    2.77
   7   6   1  123.32    2.80
   7   6   1  120.80    2.78
   7   6   1  123.94    2.61
   7   6   1  131.38    5.07
   7   6   1  137.33    2.93
   7   6   2   75.65    2.13
   7   6   2   77.44    2.11
   7   6   2   75.25    2.31
   7   6   2   70.99    1.82
   7   6   2   77.52    4.02
   7   6   2   77.78    2.19
   7   6   3    2.53    0.82
   7   6   3    2.74    0.89
   7   6   3    3.02    1.01
   7   6   3    1.87    0.86
   7   6   3    3.28    0.57
   7   6   3    3.15    1.65
   7   6   3    3.98    0.89
   7   6   4   17.87    1.34
   7   6   4   19.15    1.19
   7   6   4   19.13    1.30
   7   6   4   17.42    1.26
   7   6   4   17.49    1.38
   7   6   4   17.93    1.09
   7   6   4   19.92    1.24
   7   6   5    8.25    1.08
   7   6   5    8.54    1.02
   7   6   5    7.00    1.11
   7   6   5    7.70    1.17
   7   6   5    6.94    0.97
   7   6   5    9.36    1.99
   7   6   5    8.26    0.96
   7   6   6    7.12    1.78
   7   6   6    7.80    0.95
   7   6   6    9.81    1.08
   7   6   6    8.29    0.98
   7   6   6    7.35    1.16
   7   6   6    6.95    0.73
   7   6   6    6.60    1.09
   7   6   6    7.65    0.94
   7   6   6    8.44    1.06
   7   6   7   59.70    3.44
   7   6   7   59.18    1.83
   7   6   7   55.60    1.80
   7   6   7   55.37    1.71
   7   6   7   56.17    2.03
   7   6   7   54.86    1.51
   7   6   7   54.52    1.86
   7   6   7   58.24    1.94
   7   6   8  112.87    4.64
   7   6   8  116.61    2.61
   7   6   8  116.70    2.59
   7   6   8  118.08    2.52
   7   6   8  124.24    2.96
   7   6   8  105.10    2.26
   7   6   8  113.74    2.63
   7   6   8  105.67    2.46
   7   6   8  124.50    2.94
   7   6   9   17.14    1.54
   7   6   9   14.32    0.94
   7   6   9   15.90    1.32
   7   6   9   14.36    1.02
   7   6   9   14.08    0.93
   7   6   9   14.93    1.07
   7   6  10   16.57    1.01
   7   6  10   18.91    0.96
   7   6  11    4.93    0.96
   7   6  11    3.33    0.83
   7   6  11    4.19    1.28
   7   6  12   19.40    1.05
   7   6  12   19.14    1.10
   7   6  12   22.32    1.19
   7   6  12   20.46    0.96
   7   6  13   11.03    0.69
   7   6  13    9.26    0.77
   7   6  13    8.58    0.86
   7   6  13    8.12    0.81
   7   6  13   11.66    1.11
   7   6  13    9.15    0.72
   7   6  14   70.57    1.65
   7   6  14   68.83    1.53
   7   6  14   68.22    1.68
   7   6  15    6.71    0.48
   7   6  15    5.49    0.59
   7   6  16   52.48    1.04
   7   7  -6    3.66    0.53
   7   7  -5    7.93    0.60
   7   7  -5    6.89    0.74
   7   7  -4   26.84    1.01
   7   7  -4   24.09    1.14
   7   7  -3    1.52    0.81
   7   7  -3    1.22    0.74
   7   7  -3    1.42    0.64
   7   7  -2    3.85    0.80
   7   7  -1   27.99    1.22
   7   7  -1   27.48    1.19
   7   7  -1   30.02    1.18
   7   7   0   41.00    1.48
   7   7   0   45.78    1.57
   7   7   0   47.41    1.46
   7   7   0   43.13    1.57
   7   7   1   69.55    1.92
   7   7   1   70.48    3.79
   7   7   1   69.98    2.04
   7   7   1   67.40    1.81
   7   7   1   67.91    1.93
   7   7   2   64.46    1.89
   7   7   2   68.15    2.15
   7   7   2   71.59    3.94
   7   7   2   70.47    2.10
   7   7   2   69.04    1.81
   7   7   3   63.60    1.81
   7   7   3   65.62    2.03
   7   7   3   61.67    3.72
   7   7   3   61.08    1.99
   7   7   3   59.54    1.64
   7   7   4    4.96    1.04
   7   7   4    5.11    0.86
   7   7   4    6.00    1.00
   7   7   4    3.71    1.01
   7   7   4    6.14    0.76
   7   7   4    5.33    1.15
   7   7   4    5.17    0.63
   7   7   4    7.11    1.94
   7   7   4    6.75    1.00
   7   7   5    1.54    0.89
   7   7   5    2.52    0.88
   7   7   5    2.41    0.59
   7   7   5    1.98    1.02
   7   7   5    1.75    1.03
   7   7   5    1.64    0.90
   7   7   5    3.60    1.69
   7   7   5    1.95    0.86
   7   7   6  129.43    2.92
   7   7   6  133.62    2.85
   7   7   6  132.40    3.20
   7   7   6  124.54    2.58
   7   7   6  129.31    3.02
   7   7   6  134.04    5.31
   7   7   6  137.09    3.04
   7   7   7   87.82    4.27
   7   7   7   91.04    2.37
   7   7   7   94.31    2.32
   7   7   7   94.96    2.25
   7   7   7   92.46    2.64
   7   7   7   90.06    2.39
   7   7   7   86.36    2.22
   7   7   7   89.52    2.38
   7   7   8   21.43    1.17
   7   7   8   22.01    1.16
   7   7   8   22.54    1.11
   7   7   8   22.45    1.49
   7   7   8   21.03    1.26
   7   7   8   20.63    1.18
   7   7   8   23.09    1.51
   7   7   9   96.09    2.31
   7   7   9  104.44    2.68
   7   7   9  103.40    2.34
   7   7   9   99.27    2.22
   7   7  10    1.11    0.81
   7   7  10    1.30    0.75
   7   7  11   58.01    1.83
   7   7  11   48.78    1.53
   7   7  11   46.52    1.61
   7   7  11   64.27    2.33
   7   7  12   76.35    1.97
   7   7  12   73.06    1.95
   7   7  12   88.73    2.11
   7   7  12   89.27    2.36
   7   7  12   79.76    1.79
   7   7  13   16.49    0.88
   7   7  13   20.16    0.79
   7   7  13   16.17    0.98
   7   7  13   21.98    1.25
   7   7  13   17.79    0.97
   7   7  13   19.54    0.85
   7   7  14   12.52    0.81
   7   7  14   11.58    0.68
   7   7  14   12.30    0.72
   7   7  15   53.50    1.28
   7   7  15   60.74    1.18
   7   8  -7    3.21    0.40
   7   8  -3   29.92    1.00
   7   8  -2   15.51    0.81
   7   8  -2   14.14    0.83
   7   8  -1    4.86    0.69
   7   8  -1    4.52    0.71
   7   8   0  106.49    2.34
   7   8   0  103.36    2.44
   7   8   1   38.69    1.34
   7   8   1   38.68    1.51
   7   8   1   28.72    1.24
   7   8   1   31.71    1.49
   7   8   2   64.14    1.76
   7   8   2   64.25    2.00
   7   8   2   66.52    1.80
   7   8   2   65.45    2.05
   7   8   3   36.83    1.66
   7   8   3   38.67    1.58
   7   8   3   47.91    3.45
   7   8   3   43.16    1.75
   7   8   3   42.81    1.41
   7   8   4   61.19    1.99
   7   8   4   64.22    1.93
   7   8   4   51.49    1.94
   7   8   4   58.27    2.11
   7   8   4   61.00    1.72
   7   8   4   70.63    4.21
   7   8   4   67.41    2.21
   7   8   5   70.92    2.09
   7   8   5   75.61    2.05
   7   8   5   67.02    2.28
   7   8   5   67.90    2.21
   7   8   5   66.36    2.04
   7   8   5   82.47    4.45
   7   8   5   76.65    2.30
   7   8   6  136.16    2.95
   7   8   6  135.87    2.84
   7   8   6  124.92    3.28
   7   8   6  131.60    3.05
   7   8   6  129.54    2.88
   7   8   6  136.74    3.13
   7   8   7    6.22    0.88
   7   8   7    5.81    0.82
   7   8   7    5.40    1.26
   7   8   7    6.00    1.01
   7   8   7    5.57    0.94
   7   8   7    5.84    0.89
   7   8   8  159.70    3.06
   7   8   8  153.34    3.53
   7   8   8  156.17    3.21
   7   8   8  154.48    3.09
   7   8   8  159.77    3.24
   7   8   9    4.75    1.41
   7   8   9    4.10    0.70
   7   8   9    4.17    0.82
   7   8   9    3.36    0.84
   7   8   9    4.41    0.73
   7   8  10  114.60    2.72
   7   8  10   96.92    2.30
   7   8  10  111.33    2.32
   7   8  10   87.91    2.34
   7   8  11   12.84    0.96
   7   8  11   12.14    0.84
   7   8  11   13.14    1.13
   7   8  11   11.65    0.94
   7   8  11    9.93    0.98
   7   8  11   12.83    1.69
   7   8  12   17.81    1.00
   7   8  12   16.43    1.03
   7   8  12   20.72    1.38
   7   8  12   19.07    1.12
   7   8  12   19.64    0.87
   7   8  13    5.41    0.55
   7   8  13    5.52    0.64
   7   8  13    4.66    0.72
   7   8  13    4.78    0.72
   7   8  13    6.65    0.96
   7   8  13    5.48    0.61
   7   8  14   29.74    1.01
   7   8  14   29.80    0.90
   7   8  14   30.79    0.97
   7   8  15    7.37    0.58
   7   8  15    6.53    0.40
   7   9  -6    2.93    0.38
   7   9  -5    0.24    0.45
   7   9  -4   13.40    0.83
   7   9  -3    4.90    0.75
   7   9  -2   43.02    1.47
   7   9  -1   36.24    1.25
   7   9  -1   33.15    1.07
   7   9  -1   34.51    1.40
   7   9   0  117.02    2.65
   7   9   0  127.11    2.61
   7   9   1  120.35    2.77
   7   9   1  114.10    2.67
   7   9   1  122.91    2.61
   7   9   2   26.63    1.41
   7   9   2   24.00    1.26
   7   9   2   27.70    1.20
   7   9   3    4.72    0.85
   7   9   3    5.09    0.93
   7   9   3    5.11    1.05
   7   9   3    5.28    0.77
   7   9   4    0.65    0.73
   7   9   4    0.90    0.84
   7   9   4    0.98    1.04
   7   9   4    1.02    0.68
   7   9   4    1.28    1.09
   7   9   5   71.50    2.02
   7   9   5   70.90    2.21
   7   9   5   72.87    1.93
   7   9   5   69.69    2.05
   7   9   5   78.28    2.48
   7   9   6    7.35    1.08
   7   9   6    7.41    0.84
   7   9   6    6.86    0.87
   7   9   6    7.68    1.06
   7   9   7   88.37    2.09
   7   9   7   90.14    2.04
   7   9   7   88.85    2.26
   7   9   7   89.81    2.34
   7   9   8    1.79    0.72
   7   9   8    1.51    0.80
   7   9   9   20.62    1.06
   7   9   9   18.55    1.12
   7   9   9   21.20    1.13
   7   9  10   17.79    1.07
   7   9  10   21.61    1.08
   7   9  10   20.17    0.98
   7   9  10   21.03    1.35
   7   9  11   51.57    1.39
   7   9  11   56.75    1.74
   7   9  11   49.51    1.48
   7   9  11   41.32    1.48
   7   9  11   63.58    2.07
   7   9  12    5.92    0.72
   7   9  12    6.49    0.62
   7   9  12    6.06    0.85
   7   9  12    4.86    0.75
   7   9  12    5.73    0.73
   7   9  13   54.46    1.16
   7   9  13   52.37    1.36
   7   9  13   55.07    1.25
   7   9  13   55.88    1.40
   7   9  14    0.19    0.34
   7   9  14    0.12    0.37
   7   9  14    0.10    0.38
   7   9  14    0.45    0.48
   7   9  14    0.24    0.58
   7  10  -4    0.47    0.40
   7  10  -3   10.34    0.70
   7  10  -2    0.89    0.57
   7  10  -1   90.74    2.01
   7  10  -1   82.49    2.01
   7  10   0    5.18    0.74
   7  10   0    6.19    0.78
   7  10   0    6.62    0.73
   7  10   1   57.76    1.79
   7  10   1   54.88    1.64
   7  10   2    0.96    0.65
   7  10   2    1.53    0.83
   7  10   3   37.36    1.65
   7  10   3   38.17    1.46
   7  10   3   37.39    1.76
   7  10   4   27.53    1.90
   7  10   5   48.73    2.21
   7  10   5   34.51    1.94
   7  10   6  194.63    4.15
   7  10   6  202.10    4.97
   7  10   7    9.25    1.59
   7  10   7    6.75    0.96
   7  10   7    9.18    0.98
   7  10   8   73.49    1.71
   7  10   8   71.72    1.86
   7  10   8   75.09    1.91
   7  10   8   73.95    1.94
   7  10   9    8.13    0.80
   7  10   9    7.80    1.14
   7  10   9    6.89    0.87
   7  10   9    8.92    0.90
   7  10   9    8.89    0.69
   7  10  10   29.68    1.22
   7  10  10   33.71    1.21
   7  10  10   33.51    1.47
   7  10  10   30.90    1.08
   7  10  11    4.15    0.73
   7  10  11    4.53    0.89
   7  10  11    4.23    0.58
   7  10  12   47.26    1.29
   7  10  12   45.34    1.04
   7  10  12   45.23    1.31
   7  10  12   47.49    1.14
   7  10  13    2.74    0.54
   7  10  13    3.91    0.38
   7  10  13    3.20    0.48
   7  10  13    3.47    0.56
   7  10  14   31.25    0.77
   7  10  14   25.96    0.77
   7  11  -4   13.76    0.55
   7  11  -3    2.14    0.45
   7  11  -3    1.30    0.31
   7  11  -2    4.85    0.60
   7  11  -2    3.80    0.46
   7  11  -1    0.49    0.55
   7  11  -1    0.06    0.48
   7  11  -1    0.60    0.44
   7  11  -1    0.49    0.46
   7  11   0   24.68    1.07
   7  11   0   34.89    1.14
   7  11   0   31.03    1.12
   7  11   0   24.97    0.96
   7  11   1    3.52    0.71
   7  11   1    2.18    0.66
   7  11   1    2.96    0.62
   7  11   1    3.18    1.20
   7  11   1    2.79    0.58
   7  11   2   21.17    1.19
   7  11   2   16.56    0.87
   7  11   2   17.33    0.97
   7  11   2   23.27    1.06
   7  11   2   22.75    1.39
   7  11   3   41.42    1.76
   7  11   3   32.39    1.13
   7  11   3   33.48    1.24
   7  11   3   33.24    1.54
   7  11   3   42.81    1.49
   7  11   3   42.90    1.63
   7  11   4   16.31    0.85
   7  11   4   15.95    1.21
   7  11   4   15.55    0.90
   7  11   5   59.29    1.56
   7  11   5   58.22    1.49
   7  11   5   61.45    1.84
   7  11   5   61.53    1.83
   7  11   6   21.99    0.96
   7  11   6   22.90    0.92
   7  11   6   25.25    1.99
   7  11   6   23.26    1.22
   7  11   6   24.11    1.26
   7  11   7   16.56    0.80
   7  11   7   13.75    1.55
   7  11   7   15.49    1.00
   7  11   7   16.93    1.09
   7  11   7   15.63    1.08
   7  11   8   17.69    0.79
   7  11   8   17.07    0.94
   7  11   8   18.78    1.01
   7  11   8   15.94    1.36
   7  11   8   17.87    1.04
   7  11   9   23.73    0.96
   7  11   9   23.88    1.34
   7  11   9   24.99    1.11
   7  11  10   26.87    0.93
   7  11  10   24.71    1.08
   7  11  10   28.70    1.30
   7  11  11   23.16    0.78
   7  11  11   21.21    0.66
   7  11  11   21.98    0.98
   7  11  11   22.15    0.94
   7  11  11   22.14    1.11
   7  11  12    6.85    0.46
   7  11  12    7.03    0.62
   7  11  12    6.43    0.69
   7  11  12    5.64    0.37
   7  11  12    6.17    0.58
   7  11  13   41.01    0.99
   7  11  13   44.55    1.02
   7  12  -4   -0.13    0.30
   7  12  -2    0.75    0.28
   7  12  -1   17.30    0.65
   7  12   0    2.27    0.50
   7  12   0    1.71    0.45
   7  12   1    4.99    0.47
   7  12   1    5.98    0.57
   7  12   2    3.35    0.54
   7  12   2    2.72    0.45
   7  12   2    4.45    0.76
   7  12   2    3.45    0.87
   7  12   2    6.06    0.65
   7  12   2    5.73    1.14
   7  12   3    8.30    0.57
   7  12   3    8.47    0.63
   7  12   3    8.77    0.97
   7  12   3   13.84    0.84
   7  12   3   12.95    1.04
   7  12   4   19.40    0.80
   7  12   4   19.02    1.13
   7  12   4   18.50    0.75
   7  12   5   20.19    0.80
   7  12   5   19.89    0.76
   7  12   5   20.80    1.08
   7  12   5   22.93    1.18
   7  12   6   10.89    0.61
   7  12   6   10.10    1.21
   7  12   6   10.97    0.88
   7  12   6   12.42    0.99
   7  12   6   13.26    1.05
   7  12   7   13.65    0.64
   7  12   7   13.82    0.85
   7  12   7   17.05    1.00
   7  12   7   15.99    0.99
   7  12   7   13.96    1.21
   7  12   8   12.41    0.74
   7  12   8   13.77    0.85
   7  12   8   15.39    0.94
   7  12   8   13.83    1.10
   7  12   9    2.25    0.65
   7  12   9    2.57    0.67
   7  12   9    1.84    0.49
   7  12   9    1.53    0.82
   7  12  10   11.95    0.76
   7  12  10   11.91    0.57
   7  12  10   12.45    0.93
   7  12  11    7.45    0.43
   7  12  11    8.67    0.64
   7  12  11    7.85    0.73
   7  12  11    7.39    0.60
   7  12  12   15.25    0.73
   7  12  12   15.64    0.61
   7  13  -2    1.52    0.42
   7  13  -1    0.89    0.51
   7  13   0   19.37    0.91
   7  13   1    0.57    0.58
   7  13   2   18.26    0.87
   7  13   2   22.35    0.81
   7  13   3    0.10    0.60
   7  13   3    0.41    0.58
   7  13   3    0.65    0.72
   7  13   4    5.58    0.69
   7  13   4    7.30    0.79
   7  13   4    6.35    0.81
   7  13   5    0.97    0.57
   7  13   5    1.33    0.68
   7  13   5    1.32    0.72
   7  13   6   15.09    0.91
   7  13   6   14.28    0.90
   7  13   7   14.57    0.71
   7  13   7   18.17    0.90
   7  13   7   13.35    0.98
   7  13   7   18.29    0.91
   7  13   8    1.56    0.41
   7  13   8    2.20    0.73
   7  13   8    1.82    0.61
   7  13   9    7.17    0.42
   7  13   9    7.91    0.76
   7  13  10    7.51    0.67
   7  13  11    7.05    0.44
   7  13  11    7.45    0.57
   7  13  11    8.70    0.49
   7  14   0    0.46    0.38
   7  14   1    9.61    0.52
   7  14   1   12.60    0.65
   7  14   2    0.63    0.39
   7  14   2    0.63    0.53
   7  14   3    4.51    0.47
   7  14   3    5.87    0.63
   7  14   4    0.97    0.39
   7  14   4    1.32    0.57
   7  14   5   25.64    0.76
   7  14   5   34.13    1.01
   7  14   6    1.66    0.34
   7  14   6    2.51    0.57
   7  14   7   14.73    0.46
   7  14   7   21.78    0.79
   7  14   8    7.95    0.64
   7  14   8   14.94    0.63
   7  14   9    4.75    0.50
   7  15   3    0.28    0.31
   7  15   4   18.04    0.59
   7  15   5   11.11    0.49
   7  15   6   58.42    1.09
   8  -9   0    4.51    0.29
   8  -9   1   18.96    0.54
   8  -9   2    0.21    0.22
   8  -9   2    0.23    0.25
   8  -9   2   -0.02    0.23
   8  -9   3    5.73    0.37
   8  -9   3    6.64    0.33
   8  -8  -2   13.53    0.47
   8  -8  -1   16.17    0.59
   8  -8   0   26.48    0.81
   8  -8   0   26.24    0.70
   8  -8   1   11.04    0.62
   8  -8   1    9.62    0.61
   8  -8   2   27.97    0.87
   8  -8   2   22.40    0.66
   8  -8   2   24.44    0.89
   8  -8   2   30.32    0.86
   8  -8   3    0.87    0.37
   8  -8   3    0.59    0.43
   8  -8   3    0.84    0.42
   8  -8   4   16.47    0.64
   8  -8   4   16.51    0.62
   8  -8   5    6.33    0.39
   8  -8   5    6.43    0.46
   8  -8   6   29.08    0.74
   8  -8   7    4.51    0.30
   8  -7  -3   11.16    0.52
   8  -7  -3   12.24    0.47
   8  -7  -2   20.65    0.75
   8  -7  -2   26.73    0.79
   8  -7  -1    4.34    0.53
   8  -7  -1    3.06    0.49
   8  -7  -1    3.06    0.39
   8  -7   0    3.21    0.58
   8  -7   0    3.99    0.48
   8  -7   0    3.06    0.54
   8  -7   1   23.22    0.99
   8  -7   1   17.47    0.62
   8  -7   1   22.14    0.87
   8  -7   1   18.64    0.91
   8  -7   2   47.73    1.46
   8  -7   2   39.97    1.07
   8  -7   2   49.14    1.38
   8  -7   2   38.18    1.27
   8  -7   3   46.07    1.36
   8  -7   3   53.60    1.45
   8  -7   3   43.42    1.37
   8  -7   3   50.61    1.32
   8  -7   4   14.56    0.77
   8  -7   4   12.94    0.86
   8  -7   5   86.35    1.67
   8  -7   5   87.28    1.83
   8  -7   6    0.37    0.43
   8  -7   7   42.13    1.01
   8  -7   7   42.86    1.08
   8  -7   8    1.17    0.30
   8  -6  -4    8.32    0.50
   8  -6  -3   18.74    0.82
   8  -6  -3   22.75    0.74
   8  -6  -2   11.47    0.67
   8  -6  -2   10.88    0.79
   8  -6  -2   10.25    0.48
   8  -6  -1   36.83    1.17
   8  -6  -1   35.01    1.22
   8  -6  -1   38.17    1.00
   8  -6   0    1.27    0.68
   8  -6   0    1.27    0.54
   8  -6   0    1.07    0.58
   8  -6   0    0.88    0.59
   8  -6   1    5.43    0.90
   8  -6   1    5.04    0.50
   8  -6   1    6.62    0.77
   8  -6   1    4.70    0.60
   8  -6   1    4.47    0.71
   8  -6   2   48.94    1.96
   8  -6   2   36.43    1.14
   8  -6   2   45.37    1.67
   8  -6   2   34.88    1.33
   8  -6   3   12.28    1.14
   8  -6   3   13.41    1.29
   8  -6   3   10.26    0.89
   8  -6   3   11.84    0.94
   8  -6   4   77.92    1.94
   8  -6   4   76.35    2.15
   8  -6   5    0.34    0.91
   8  -6   5    1.10    0.56
   8  -6   5    1.21    0.57
   8  -6   5    0.68    0.75
   8  -6   6   27.41    0.88
   8  -6   6   28.59    1.05
   8  -6   6   27.34    1.07
   8  -6   7    2.33    0.51
   8  -6   7    2.23    0.57
   8  -6   8   33.33    0.91
   8  -6   8   32.78    1.05
   8  -6   9    0.79    0.33
   8  -5  -5    3.59    0.38
   8  -5  -4   15.50    0.73
   8  -5  -4   17.95    0.63
   8  -5  -3    4.11    0.71
   8  -5  -3    3.91    0.54
   8  -5  -2   20.45    0.91
   8  -5  -2   22.53    1.33
   8  -5  -2   22.15    0.71
   8  -5  -1   19.70    0.99
   8  -5  -1   21.28    1.31
   8  -5  -1   20.63    0.82
   8  -5   0    5.20    0.84
   8  -5   0    5.59    0.69
   8  -5   0    4.76    0.78
   8  -5   0    4.98    0.85
   8  -5   1   62.22    1.85
   8  -5   1   57.50    1.35
   8  -5   1   47.33    1.12
   8  -5   1   64.02    1.68
   8  -5   1   49.68    1.51
   8  -5   1   51.08    1.65
   8  -5   2   17.06    1.37
   8  -5   2   15.06    0.86
   8  -5   2   12.40    0.59
   8  -5   2   19.06    1.27
   8  -5   2   10.44    0.80
   8  -5   2   11.95    0.99
   8  -5   3   57.56    1.91
   8  -5   3   58.64    1.73
   8  -5   3   43.69    1.15
   8  -5   3   68.52    2.06
   8  -5   3   49.04    1.70
   8  -5   4    8.40    0.84
   8  -5   4   11.40    0.97
   8  -5   4   10.08    1.09
   8  -5   4   12.92    1.25
   8  -5   4    8.43    0.56
   8  -5   5   45.50    1.98
   8  -5   5   36.83    1.21
   8  -5   5   35.57    1.33
   8  -5   5   40.43    1.51
   8  -5   5   31.06    0.98
   8  -5   6    0.60    0.51
   8  -5   6    0.86    0.66
   8  -5   6    0.52    0.61
   8  -5   7   41.53    1.25
   8  -5   7   42.76    1.33
   8  -5   7   44.77    1.48
   8  -5   8    3.91    0.54
   8  -5   8    3.60    0.61
   8  -5   8    4.06    0.73
   8  -5   9   65.72    1.38
   8  -5   9   68.95    1.63
   8  -4  -5   22.00    0.76
   8  -4  -5   29.88    0.82
   8  -4  -4    3.29    0.59
   8  -4  -4    4.04    0.62
   8  -4  -4    3.33    0.47
   8  -4  -3   15.40    0.79
   8  -4  -3   15.47    1.01
   8  -4  -3   13.71    0.50
   8  -4  -2    0.40    0.62
   8  -4  -2    0.65    0.42
   8  -4  -2    0.06    1.17
   8  -4  -1   92.67    2.65
   8  -4  -1   84.64    1.97
   8  -4  -1   66.62    1.46
   8  -4  -1   90.80    1.76
   8  -4  -1   71.03    1.70
   8  -4   0   36.90    1.53
   8  -4   0   35.14    1.39
   8  -4   0   39.39    1.41
   8  -4   0   29.45    0.93
   8  -4   0   41.15    1.25
   8  -4   0   32.27    1.15
   8  -4   1   25.17    1.22
   8  -4   1   26.07    1.27
   8  -4   1   30.31    1.37
   8  -4   1   30.08    1.01
   8  -4   1   26.31    0.89
   8  -4   1   33.80    1.26
   8  -4   1   26.36    1.07
   8  -4   2  161.47    3.24
   8  -4   2  145.61    2.76
   8  -4   2  121.65    2.45
   8  -4   2  164.56    3.09
   8  -4   2  137.98    2.80
   8  -4   2  136.71    3.04
   8  -4   3   70.96    2.01
   8  -4   3   72.67    1.89
   8  -4   3   59.25    1.45
   8  -4   3   80.27    2.06
   8  -4   3   58.87    1.62
   8  -4   3   59.14    1.93
   8  -4   4   36.08    1.35
   8  -4   4   40.79    1.42
   8  -4   4   36.67    1.16
   8  -4   4   39.15    1.60
   8  -4   4   44.43    1.57
   8  -4   4   31.92    1.04
   8  -4   5    6.47    1.01
   8  -4   5    6.34    0.78
   8  -4   5    6.03    0.82
   8  -4   5    6.43    0.90
   8  -4   5    5.90    0.57
   8  -4   6   15.58    0.84
   8  -4   6   14.59    1.03
   8  -4   6   16.60    0.98
   8  -4   6   12.91    0.72
   8  -4   7    4.83    0.57
   8  -4   7    4.99    0.70
   8  -4   7    6.14    0.80
   8  -4   7    4.79    0.89
   8  -4   8   45.82    1.65
   8  -4   8   50.09    1.98
   8  -4   9    2.95    0.50
   8  -4   9    2.73    0.81
   8  -4  10   45.31    1.35
   8  -3  -6   19.62    0.64
   8  -3  -5    4.62    0.58
   8  -3  -5    4.03    0.48
   8  -3  -4   15.87    0.73
   8  -3  -4   14.49    0.83
   8  -3  -4   17.02    0.98
   8  -3  -3    7.41    0.68
   8  -3  -3    8.07    0.87
   8  -3  -3    8.67    1.34
   8  -3  -3    6.12    0.72
   8  -3  -2   40.91    1.65
   8  -3  -2   37.79    1.27
   8  -3  -2   29.04    0.95
   8  -3  -2   39.39    1.03
   8  -3  -2   38.91    1.56
   8  -3  -2   31.42    1.22
   8  -3  -1    4.61    1.09
   8  -3  -1    3.11    0.77
   8  -3  -1    2.30    0.48
   8  -3  -1    3.19    0.59
   8  -3  -1    1.84    0.74
   8  -3   0   63.73    1.96
   8  -3   0   57.94    1.81
   8  -3   0   66.05    1.82
   8  -3   0   55.66    1.46
   8  -3   0   69.59    1.65
   8  -3   0   58.41    1.68
   8  -3   1    1.69    0.75
   8  -3   1    1.43    0.80
   8  -3   1    1.84    0.83
   8  -3   1    1.27    0.49
   8  -3   1    1.61    0.53
   8  -3   1    1.58    0.70
   8  -3   1    1.40    0.75
   8  -3   2   83.29    2.09
   8  -3   2   80.90    2.24
   8  -3   2   87.93    2.26
   8  -3   2   78.34    1.84
   8  -3   2   89.52    2.01
   8  -3   2   83.48    2.03
   8  -3   3   27.81    1.30
   8  -3   3   29.08    1.21
   8  -3   3   30.46    1.30
   8  -3   3   28.85    1.18
   8  -3   3   27.63    1.34
   8  -3   4   44.64    1.50
   8  -3   4   52.43    1.57
   8  -3   4   45.59    1.38
   8  -3   4   43.36    1.65
   8  -3   4   53.79    1.63
   8  -3   4   42.54    1.28
   8  -3   5   29.07    1.34
   8  -3   5   29.83    1.04
   8  -3   5   35.75    1.35
   8  -3   5   30.03    1.07
   8  -3   5   28.31    1.32
   8  -3   5   34.03    1.23
   8  -3   6   14.47    0.81
   8  -3   6   15.54    1.07
   8  -3   6   16.72    0.89
   8  -3   7  105.35    2.24
   8  -3   7  101.93    2.57
   8  -3   7  101.38    2.59
   8  -3   7   98.47    2.02
   8  -3   8   12.48    1.18
   8  -3   8   13.21    0.95
   8  -3   8   12.28    0.81
   8  -3   8   13.43    1.26
   8  -3   9  105.49    2.38
   8  -3   9   91.80    1.99
   8  -3  10   -0.32    0.64
   8  -3  10   -0.07    0.64
   8  -3  11   39.96    1.19
   8  -2  -6    1.95    0.44
   8  -2  -6    1.83    0.46
   8  -2  -5   49.62    1.40
   8  -2  -5   45.05    1.17
   8  -2  -5   62.40    1.38
   8  -2  -5   46.84    1.32
   8  -2  -5   62.20    1.41
   8  -2  -4    2.09    0.78
   8  -2  -4    1.37    0.37
   8  -2  -4    2.57    0.81
   8  -2  -4    2.48    0.60
   8  -2  -4    2.03    0.79
   8  -2  -4    1.67    0.69
   8  -2  -3   18.11    1.10
   8  -2  -3   16.53    0.76
   8  -2  -3   20.95    1.14
   8  -2  -3   20.68    0.94
   8  -2  -3   20.08    1.04
   8  -2  -3   17.09    1.05
   8  -2  -2    0.22    0.80
   8  -2  -2    0.01    0.74
   8  -2  -2    0.25    0.46
   8  -2  -2   -0.12    0.86
   8  -2  -2    0.41    0.66
   8  -2  -2   -0.26    0.45
   8  -2  -2   -0.03    0.93
   8  -2  -2    0.28    0.78
   8  -2  -1   75.27    2.10
   8  -2  -1   54.66    1.72
   8  -2  -1   59.99    1.61
   8  -2  -1   72.73    1.83
   8  -2  -1   73.20    1.87
   8  -2  -1   74.48    1.63
   8  -2  -1   66.21    1.78
   8  -2  -1   62.78    1.87
   8  -2   0    4.98    0.77
   8  -2   0    6.63    0.72
   8  -2   0    5.50    0.75
   8  -2   0    5.96    0.92
   8  -2   0    4.73    0.65
   8  -2   0    6.15    0.93
   8  -2   1   75.19    1.95
   8  -2   1   82.49    2.00
   8  -2   1   93.30    1.93
   8  -2   1   87.19    2.22
   8  -2   1  100.06    2.13
   8  -2   2   26.11    1.11
   8  -2   2   26.05    1.32
   8  -2   3   27.90    1.13
   8  -2   3   32.48    1.23
   8  -2   4   34.97    1.25
   8  -2   4   41.10    1.43
   8  -2   5   22.34    1.11
   8  -2   5   17.56    0.91
   8  -2   5   21.22    1.03
   8  -2   5   16.45    1.05
   8  -2   5   16.45    0.94
   8  -2   6   18.94    0.94
   8  -2   6   20.00    1.15
   8  -2   6   21.96    1.00
   8  -2   7   13.79    0.91
   8  -2   7   13.51    1.09
   8  -2   7   12.76    0.81
   8  -2   7   12.67    0.99
   8  -2   7   13.82    0.79
   8  -2   8   97.92    1.98
   8  -2   8  108.62    2.57
   8  -2   8  106.59    2.23
   8  -2   8  116.25    2.81
   8  -2   8   95.83    2.12
   8  -2   9   70.25    2.11
   8  -2   9   76.19    2.28
   8  -2  10   41.19    1.73
   8  -2  10   33.76    1.33
   8  -2  11   26.12    1.17
   8  -2  12   84.79    1.76
   8  -1  -7    2.20    0.36
   8  -1  -6   40.50    1.15
   8  -1  -6   40.19    1.17
   8  -1  -5    5.04    0.86
   8  -1  -5    3.66    0.47
   8  -1  -5    4.68    0.66
   8  -1  -5    3.23    0.75
   8  -1  -5    2.86    0.41
   8  -1  -5    5.55    0.94
   8  -1  -4   28.88    1.64
   8  -1  -4   19.01    0.82
   8  -1  -4   28.46    1.42
   8  -1  -4   22.04    0.92
   8  -1  -4   27.49    1.11
   8  -1  -4   20.63    1.19
   8  -1  -3    1.51    1.06
   8  -1  -3    1.93    1.06
   8  -1  -3    1.37    0.52
   8  -1  -3    1.34    0.61
   8  -1  -3    1.66    0.66
   8  -1  -3    2.30    0.86
   8  -1  -3    1.87    0.87
   8  -1  -2   40.99    1.45
   8  -1  -2   36.01    1.55
   8  -1  -2   34.48    1.25
   8  -1  -2   40.09    1.59
   8  -1  -2   42.84    1.37
   8  -1  -2   40.71    1.09
   8  -1  -2   47.12    1.55
   8  -1  -2   33.88    1.53
   8  -1  -1    4.91    0.87
   8  -1  -1    4.19    0.88
   8  -1  -1    3.97    0.77
   8  -1  -1    3.41    0.58
   8  -1  -1    3.96    0.82
   8  -1  -1    3.68    0.96
   8  -1  -1    4.00    1.02
   8  -1  -1    3.18    0.65
   8  -1   0   22.33    0.98
   8  -1   0   21.52    1.04
   8  -1   0   18.72    1.24
   8  -1   0   17.75    1.02
   8  -1   0   22.36    1.29
   8  -1   1   37.17    1.24
   8  -1   1   33.82    1.33
   8  -1   2   86.93    2.20
   8  -1   2   85.54    2.13
   8  -1   2   91.52    2.03
   8  -1   3   41.28    1.44
   8  -1   3   36.45    1.36
   8  -1   4    7.71    0.75
   8  -1   4    9.77    0.83
   8  -1   5   24.94    1.09
   8  -1   6   34.46    1.23
   8  -1   6   34.97    1.37
   8  -1   6   35.71    1.21
   8  -1   6   38.73    1.26
   8  -1   7   36.20    1.28
   8  -1   7   33.86    1.14
   8  -1   7   35.86    1.22
   8  -1   8   18.25    1.18
   8  -1   8   18.33    0.96
   8  -1   8   17.16    1.15
   8  -1   8   15.63    0.88
   8  -1   8   16.36    0.78
   8  -1   8   17.28    1.03
   8  -1   8   16.72    0.93
   8  -1   9   43.66    1.43
   8  -1   9   44.73    1.78
   8  -1   9   45.16    1.59
   8  -1   9   43.82    1.26
   8  -1  10   15.76    0.94
   8  -1  10   15.72    0.82
   8  -1  11   26.72    1.04
   8  -1  11   28.67    1.33
   8  -1  12   33.30    1.02
   8  -1  12   31.79    1.07
   8   0  -7   35.26    0.93
   8   0  -7   36.59    0.92
   8   0  -6    0.21    0.60
   8   0  -6   -0.10    0.58
   8   0  -6    0.13    0.72
   8   0  -5   47.83    1.64
   8   0  -5   53.27    1.27
   8   0  -5   40.69    1.49
   8   0  -5   35.85    1.08
   8   0  -5   54.20    1.72
   8   0  -4   12.25    1.66
   8   0  -4    8.05    0.64
   8   0  -4   11.44    0.86
   8   0  -4    8.71    1.14
   8   0  -4    7.46    0.67
   8   0  -4   12.35    1.71
   8   0  -3    1.46    1.24
   8   0  -3    1.26    1.35
   8   0  -3    1.20    0.57
   8   0  -3    1.25    0.61
   8   0  -3    1.96    0.79
   8   0  -3    2.43    1.05
   8   0  -2    1.10    0.98
   8   0  -2    0.67    0.66
   8   0  -2    1.22    0.70
   8   0  -2    0.79    0.81
   8   0  -2    0.89    0.98
   8   0  -2    0.82    1.17
   8   0  -2    0.60    0.61
   8   0  -1   12.59    0.96
   8   0  -1   18.00    1.34
   8   0  -1   16.83    1.03
   8   0  -1   13.45    1.22
   8   0  -1   17.02    0.81
   8   0   0    2.68    0.71
   8   0   0    3.07    0.62
   8   0   0    2.94    0.75
   8   0   1   53.87    1.69
   8   0   1   50.79    1.68
   8   0   1   56.07    1.72
   8   0   2   34.30    1.35
   8   0   2   32.54    1.33
   8   0   2   36.47    1.40
   8   0   3   36.66    1.38
   8   0   3   37.53    1.43
   8   0   3   35.84    1.36
   8   0   3   38.75    1.42
   8   0   4   36.67    1.36
   8   0   4   38.74    1.42
   8   0   4   40.62    1.41
   8   0   5   23.66    1.10
   8   0   5   23.78    1.09
   8   0   6   15.67    0.94
   8   0   7   21.30    1.01
   8   0   7   21.21    1.04
   8   0   7   21.93    0.96
   8   0   8   60.78    1.77
   8   0   8   62.30    1.91
   8   0   8   55.78    1.56
   8   0   8   59.28    1.57
   8   0   8   54.76    1.41
   8   0   9   18.03    1.19
   8   0   9   13.79    0.84
   8   0   9   16.75    1.08
   8   0   9   16.60    0.92
   8   0   9   17.18    1.04
   8   0  10   22.64    0.97
   8   0  10   21.31    1.10
   8   0  11    8.24    0.84
   8   0  11    8.16    0.81
   8   0  11    7.00    0.69
   8   0  12   61.18    1.51
   8   0  12   60.19    1.50
   8   0  13    0.53    0.45
   8   1  -7    2.04    0.45
   8   1  -7    2.77    0.49
   8   1  -7    1.64    0.38
   8   1  -6   36.56    1.29
   8   1  -6   42.08    1.23
   8   1  -5   -0.25    0.97
   8   1  -5    0.49    1.17
   8   1  -5    0.11    0.47
   8   1  -5    0.93    0.83
   8   1  -4   19.16    1.40
   8   1  -4   14.61    0.71
   8   1  -4   18.49    0.95
   8   1  -4   16.24    1.59
   8   1  -3    0.25    1.48
   8   1  -3    0.68    1.08
   8   1  -3    0.43    0.55
   8   1  -3    0.15    0.72
   8   1  -3    0.15    1.20
   8   1  -2   12.50    1.41
   8   1  -2   13.80    1.22
   8   1  -2   12.46    0.87
   8   1  -2   14.70    0.99
   8   1  -2   11.80    1.32
   8   1  -1    0.84    0.74
   8   1  -1    2.36    0.78
   8   1  -1    2.27    1.03
   8   1  -1    2.16    1.13
   8   1  -1    1.43    0.74
   8   1   0   35.87    1.17
   8   1   0   30.78    1.41
   8   1   1    4.46    0.80
   8   1   1    2.50    0.78
   8   1   1    4.05    0.89
   8   1   1    4.08    0.82
   8   1   2   47.91    1.56
   8   1   2   47.17    1.66
   8   1   2   46.93    1.63
   8   1   2   51.25    1.60
   8   1   3   15.95    1.02
   8   1   3   14.65    1.04
   8   1   3   12.51    1.01
   8   1   3   13.02    0.95
   8   1   3   13.53    0.92
   8   1   3   14.93    1.19
   8   1   4    2.63    0.73
   8   1   4    2.12    0.74
   8   1   4    1.74    0.69
   8   1   4    2.41    0.70
   8   1   4    1.72    0.71
   8   1   4    1.57    0.88
   8   1   5    7.62    0.79
   8   1   5    5.33    0.76
   8   1   6   46.92    1.47
   8   1   7   10.46    0.79
   8   1   7   13.07    1.01
   8   1   8  100.12    2.25
   8   1   8   97.69    2.15
   8   1   8   94.17    2.32
   8   1   9   38.52    1.29
   8   1   9   39.83    1.41
   8   1   9   38.25    1.43
   8   1  10   13.26    0.96
   8   1  10   12.65    0.88
   8   1  10   12.82    1.01
   8   1  10   12.91    1.02
   8   1  11   30.37    1.16
   8   1  11   31.41    1.32
   8   1  11   31.88    1.20
   8   1  11   30.46    1.05
   8   1  12    7.52    0.78
   8   1  12    8.09    0.81
   8   1  12    7.36    0.63
   8   1  13   33.43    1.02
   8   1  14    0.70    0.33
   8   2  -7   12.68    0.62
   8   2  -7   12.98    0.52
   8   2  -6    0.33    0.62
   8   2  -6    0.58    0.54
   8   2  -6    0.26    0.71
   8   2  -5    9.71    1.20
   8   2  -5   11.28    0.91
   8   2  -4    1.03    1.88
   8   2  -4    0.54    0.89
   8   2  -4    1.13    1.33
   8   2  -3   32.60    1.51
   8   2  -3   30.55    1.95
   8   2  -3   35.79    1.80
   8   2  -2    1.74    0.93
   8   2  -2    2.93    1.26
   8   2  -2    2.04    1.17
   8   2  -2    1.69    0.60
   8   2  -1   68.48    2.25
   8   2  -1   81.11    2.23
   8   2   0    5.65    0.90
   8   2   1   99.79    2.33
   8   2   1   96.50    2.52
   8   2   1  102.01    2.49
   8   2   2    2.35    0.73
   8   2   2    1.76    0.80
   8   2   2    0.96    0.84
   8   2   2    2.18    0.80
   8   2   2    1.50    0.80
   8   2   2    2.87    0.77
   8   2   3  159.23    3.46
   8   2   3  199.44    3.57
   8   2   3  190.43    3.60
   8   2   3  163.37    3.45
   8   2   3  191.20    3.71
   8   2   3  179.09    3.44
   8   2   3  202.95    3.44
   8   2   3  185.27    3.70
   8   2   4    1.86    0.73
   8   2   4    2.04    0.72
   8   2   4    2.19    0.78
   8   2   4    1.44    0.71
   8   2   4    2.09    0.74
   8   2   4    1.46    0.66
   8   2   4    1.83    0.68
   8   2   4    1.76    0.88
   8   2   5  107.05    2.38
   8   2   5  105.45    2.44
   8   2   6   35.84    1.31
   8   2   7    8.58    0.75
   8   2   7    8.95    0.89
   8   2   8   48.53    1.57
   8   2   8   37.27    1.19
   8   2   8   37.60    1.18
   8   2   8   51.58    1.60
   8   2   8   46.08    1.45
   8   2   8   44.23    1.35
   8   2   9   55.27    1.64
   8   2   9   53.25    1.53
   8   2   9   53.05    1.70
   8   2  10   28.94    1.16
   8   2  10   29.87    1.28
   8   2  10   28.06    1.35
   8   2  11   23.13    0.99
   8   2  11   24.25    1.15
   8   2  11   23.77    1.40
   8   2  12   70.93    1.65
   8   2  12   67.64    1.52
   8   2  12   66.13    1.87
   8   2  13    0.78    0.45
   8   2  13    1.97    0.62
   8   2  13    1.33    0.54
   8   2  14   12.74    0.55
   8   3  -6    7.64    0.73
   8   3  -6    8.85    0.61
   8   3  -5    6.91    0.99
   8   3  -5    7.09    0.74
   8   3  -5    9.30    0.95
   8   3  -4   25.73    1.73
   8   3  -4   22.84    1.14
   8   3  -4   27.46    1.40
   8   3  -3    0.79    1.20
   8   3  -3   -0.36    0.84
   8   3  -3    0.45    1.11
   8   3  -2   72.99    2.04
   8   3  -2   66.86    1.64
   8   3  -2   69.81    2.24
   8   3  -1    0.43    0.57
   8   3  -1    0.72    0.97
   8   3  -1    0.17    1.12
   8   3   1    1.67    0.67
   8   3   1    0.82    0.85
   8   3   1    0.76    0.77
   8   3   2   26.23    1.39
   8   3   2   36.94    1.32
   8   3   2   35.15    1.43
   8   3   2   28.62    1.39
   8   3   2   31.87    1.44
   8   3   3    2.43    0.86
   8   3   3    2.13    0.70
   8   3   3    2.66    0.85
   8   3   3    2.22    0.82
   8   3   3    2.55    0.78
   8   3   4   91.51    2.37
   8   3   4  110.28    2.44
   8   3   4   96.54    2.37
   8   3   4  104.60    2.47
   8   3   5    0.96    0.73
   8   3   5    0.78    0.69
   8   3   5    1.13    0.69
   8   3   6   63.43    1.78
   8   3   6   63.73    1.73
   8   3   7    8.58    1.00
   8   3   7    7.12    0.72
   8   3   8   47.94    1.55
   8   3   8   46.39    1.35
   8   3   8   50.53    1.55
   8   3   9   24.45    0.95
   8   3   9   22.25    0.97
   8   3   9   25.69    1.00
   8   3   9   27.92    1.25
   8   3   9   32.95    1.37
   8   3   9   29.90    1.23
   8   3  10   23.87    1.26
   8   3  10   25.84    1.27
   8   3  10   23.53    1.09
   8   3  11  120.16    2.91
   8   3  11  115.20    2.33
   8   3  11  112.57    2.19
   8   3  12   38.72    1.50
   8   3  12   41.31    1.15
   8   3  12   42.94    1.30
   8   3  13   28.43    0.98
   8   3  13   28.97    0.88
   8   3  14   20.32    0.72
   8   4  -6    6.36    0.59
   8   4  -6    6.06    0.46
   8   4  -5   26.78    1.15
   8   4  -5   27.58    0.97
   8   4  -4   36.42    1.50
   8   4  -4   35.26    1.23
   8   4  -4   39.76    1.39
   8   4  -3    7.10    1.09
   8   4  -3    6.26    0.85
   8   4  -3    8.09    1.07
   8   4  -2    8.30    1.08
   8   4  -2    8.70    0.94
   8   4  -2   10.71    1.15
   8   4  -1   72.66    1.98
   8   4  -1   76.89    2.07
   8   4   0    4.55    0.96
   8   4   0    5.10    1.11
   8   4   1   65.19    2.01
   8   4   2    0.82    0.88
   8   4   2    1.27    0.83
   8   4   2    1.12    0.83
   8   4   2    0.99    0.74
   8   4   3   39.99    1.48
   8   4   3   36.97    1.49
   8   4   3   36.37    1.45
   8   4   4   15.36    1.12
   8   4   4   18.83    1.12
   8   4   4   15.06    1.07
   8   4   4   17.85    1.06
   8   4   5   78.01    2.10
   8   4   5   79.32    2.05
   8   4   5   83.29    2.07
   8   4   6    6.50    0.86
   8   4   6    6.47    0.79
   8   4   6    6.91    0.74
   8   4   7   47.51    1.55
   8   4   7   45.89    1.38
   8   4   8  116.68    2.53
   8   4   8  121.62    2.59
   8   4   9   84.92    1.99
   8   4   9   96.86    2.01
   8   4   9  105.22    2.28
   8   4   9  116.72    2.44
   8   4   9   85.29    1.95
   8   4  10    4.40    0.82
   8   4  10    3.12    0.62
   8   4  11   32.95    1.13
   8   4  11   51.12    1.55
   8   4  11   45.52    1.36
   8   4  11   38.65    1.15
   8   4  12   35.03    1.13
   8   4  12   32.95    1.00
   8   4  13   30.82    0.93
   8   4  13   28.75    0.79
   8   4  14   22.01    0.62
   8   4  14   27.04    0.65
   8   5  -6    0.03    0.37
   8   5  -5    6.32    0.53
   8   5  -5    5.68    0.62
   8   5  -4   35.21    1.15
   8   5  -4   32.76    1.06
   8   5  -3   28.50    1.11
   8   5  -3   27.10    1.25
   8   5  -2   60.90    1.67
   8   5  -2   56.72    1.76
   8   5  -1   19.14    1.17
   8   5  -1   19.69    1.10
   8   5   0   56.07    1.70
   8   5   0   47.94    1.62
   8   5   1   12.39    1.04
   8   5   1   13.90    1.06
   8   5   2   96.95    2.35
   8   5   2  106.41    2.51
   8   5   3    0.94    0.85
   8   5   3    1.39    0.79
   8   5   3    1.09    0.83
   8   5   3    0.69    0.68
   8   5   4   54.25    1.82
   8   5   4   61.07    1.75
   8   5   4   56.94    1.79
   8   5   4   60.97    1.76
   8   5   5    0.61    0.77
   8   5   5    0.72    0.73
   8   5   5    0.70    0.60
   8   5   5    0.59    0.73
   8   5   6   51.26    1.48
   8   5   6   48.08    1.59
   8   5   7    3.63    0.89
   8   5   7    3.92    0.59
   8   5   8   46.52    1.54
   8   5   8   43.65    1.54
   8   5   9   17.23    0.87
   8   5   9   13.93    0.87
   8   5   9   18.74    1.12
   8   5   9   15.81    0.92
   8   5  10   50.78    1.50
   8   5  10   58.68    1.50
   8   5  11    3.22    0.56
   8   5  11    5.83    1.07
   8   5  11    4.86    0.76
   8   5  11    3.95    0.61
   8   5  12   18.18    1.05
   8   5  12   15.96    0.86
   8   5  12   15.58    0.75
   8   5  13    2.42    0.41
   8   5  13    3.47    0.68
   8   5  13    1.94    0.49
   8   5  14   10.71    0.58
   8   5  14    9.45    0.42
   8   6  -6    0.45    0.27
   8   6  -5    6.76    0.37
   8   6  -5    2.75    0.57
   8   6  -4   18.95    0.72
   8   6  -4   19.23    0.78
   8   6  -3    3.90    0.60
   8   6  -3    2.25    0.81
   8   6  -3    3.49    0.64
   8   6  -2    3.19    0.65
   8   6  -2    2.86    0.87
   8   6  -2    3.03    0.68
   8   6  -1   51.83    1.49
   8   6  -1   48.42    1.70
   8   6  -1   49.97    1.50
   8   6   0    5.76    1.09
   8   6   0    7.53    0.84
   8   6   0    7.05    0.82
   8   6   0    7.38    0.98
   8   6   1   47.71    1.47
   8   6   1   49.68    1.63
   8   6   2    1.64    0.72
   8   6   2    1.91    0.69
   8   6   3   45.96    1.44
   8   6   3   53.67    1.62
   8   6   4    0.64    0.60
   8   6   5   76.79    2.02
   8   6   5   90.22    2.03
   8   6   6    0.75    0.84
   8   6   7  138.28    2.96
   8   6   8   18.36    0.92
   8   6   8   19.16    1.19
   8   6   8   17.44    1.01
   8   6   9   40.45    1.21
   8   6   9   37.91    1.25
   8   6  10    0.10    0.75
   8   6  10    0.01    0.55
   8   6  10    0.67    1.24
   8   6  10    0.25    0.58
   8   6  11    2.29    0.73
   8   6  11    1.44    0.52
   8   6  11    1.90    0.56
   8   6  12   12.36    0.69
   8   6  12   17.62    1.04
   8   6  12   14.27    0.84
   8   6  12   15.46    0.73
   8   6  13   11.34    0.64
   8   6  13   14.49    0.79
   8   6  13   12.37    0.54
   8   6  13    9.41    0.58
   8   6  14   12.05    0.57
   8   6  14   12.81    0.45
   8   7  -5    0.99    0.37
   8   7  -4    1.90    0.57
   8   7  -3   34.51    0.92
   8   7  -3   30.31    1.18
   8   7  -2    1.55    0.52
   8   7  -2    1.63    0.75
   8   7  -1   17.00    0.82
   8   7  -1   20.47    0.91
   8   7  -1   18.39    1.11
   8   7   0   41.60    1.41
   8   7   0   40.66    1.27
   8   7   0   42.40    1.50
   8   7   1   18.92    0.98
   8   7   1   20.23    1.15
   8   7   1   17.82    1.01
   8   7   2   29.80    1.18
   8   7   2   28.21    1.14
   8   7   2   28.17    1.29
   8   7   2   25.02    1.34
   8   7   3    5.95    1.00
   8   7   3    7.79    0.89
   8   7   4   16.24    1.12
   8   7   5    3.29    0.82
   8   7   6   61.85    1.86
   8   7   6   65.24    1.94
   8   7   7    0.57    0.77
   8   7   7    0.34    0.92
   8   7   7    0.95    0.67
   8   7   7    0.75    0.65
   8   7   8   55.63    1.79
   8   7   8   55.31    1.47
   8   7   9    0.71    0.64
   8   7   9    0.31    0.87
   8   7   9    0.46    0.59
   8   7   9    0.79    0.55
   8   7  10   58.88    1.66
   8   7  10   55.67    1.42
   8   7  11    0.41    0.51
   8   7  11    0.83    0.68
   8   7  11    0.46    0.52
   8   7  12    7.84    0.59
   8   7  12    7.73    0.69
   8   7  12    6.53    0.57
   8   7  13   10.09    0.66
   8   7  13    8.41    0.57
   8   7  13   10.55    0.49
   8   7  13    7.91    0.51
   8   7  14   39.32    0.76
   8   8  -4    1.93    0.41
   8   8  -3    0.61    0.50
   8   8  -2    7.81    0.74
   8   8  -1   36.12    1.26
   8   8   0    1.91    0.73
   8   8   0    1.30    1.00
   8   8   1   31.21    1.24
   8   8   1   26.62    1.28
   8   8   2    4.62    0.79
   8   8   2    4.83    0.73
   8   8   2    3.95    0.85
   8   8   2    3.86    0.95
   8   8   3   13.63    0.96
   8   8   3   15.30    1.03
   8   8   3   12.66    1.01
   8   8   4   14.55    0.94
   8   8   4   13.35    1.01
   8   8   4   12.19    1.08
   8   8   5   58.05    1.60
   8   8   5   50.45    1.71
   8   8   5   64.40    1.96
   8   8   5   56.82    1.65
   8   8   6    4.59    0.70
   8   8   6    5.07    0.99
   8   8   6    4.69    0.85
   8   8   6    6.61    0.87
   8   8   6    4.79    0.75
   8   8   7   60.59    1.63
   8   8   7   62.04    1.58
   8   8   7   58.65    1.70
   8   8   7   61.84    1.72
   8   8   8    0.01    0.67
   8   8   8   -0.06    0.99
   8   8   8    0.26    0.55
   8   8   9   53.27    1.71
   8   8   9   55.62    1.47
   8   8  10    6.11    0.67
   8   8  10    7.18    0.89
   8   8  10    6.97    0.68
   8   8  11   32.66    1.16
   8   8  11   34.62    1.00
   8   8  12    3.33    0.42
   8   8  12    2.48    0.46
   8   8  12    2.58    0.56
   8   8  12    2.79    0.47
   8   8  13   40.23    0.96
   8   8  13   41.14    0.95
   8   9  -3   20.89    0.76
   8   9  -3   16.09    0.63
   8   9  -2    3.77    0.62
   8   9  -2    2.12    0.73
   8   9  -2    3.62    0.51
   8   9  -1   42.85    1.28
   8   9  -1   40.14    1.17
   8   9   0   63.27    1.62
   8   9   0   59.57    1.49
   8   9   1   30.22    1.21
   8   9   1   31.41    1.13
   8   9   2    4.41    0.94
   8   9   2    5.43    0.72
   8   9   2    5.36    0.79
   8   9   2    6.09    0.72
   8   9   3   46.50    1.37
   8   9   3   46.17    1.46
   8   9   4    0.87    0.82
   8   9   4    1.19    0.63
   8   9   4    1.46    0.68
   8   9   4    1.53    0.92
   8   9   5    7.89    0.92
   8   9   5    9.33    0.76
   8   9   5    8.83    0.81
   8   9   6   62.98    1.61
   8   9   6   63.70    1.55
   8   9   6   59.72    1.70
   8   9   7    0.52    0.56
   8   9   7   -0.11    1.28
   8   9   7   -0.01    0.72
   8   9   7    0.07    0.63
   8   9   7    0.39    0.63
   8   9   8   60.82    1.41
   8   9   8   56.72    1.52
   8   9   8   57.75    1.99
   8   9   9    5.28    0.67
   8   9   9    5.61    0.92
   8   9   9    5.62    0.58
   8   9  10   33.45    1.01
   8   9  10   33.03    1.20
   8   9  11    5.69    0.53
   8   9  11    4.70    0.67
   8   9  11    4.43    0.54
   8   9  12   34.16    0.84
   8   9  12   31.90    0.74
   8   9  12   31.53    0.92
   8   9  13    3.70    0.31
   8  10  -2    4.45    0.59
   8  10  -2    5.81    0.36
   8  10  -1    8.75    0.60
   8  10  -1    7.29    0.50
   8  10   0   33.79    1.04
   8  10   0   30.84    0.92
   8  10   1    8.26    0.70
   8  10   1    6.40    0.88
   8  10   1    7.49    0.61
   8  10   2    9.50    0.96
   8  10   2   10.93    0.69
   8  10   2   11.05    0.76
   8  10   3    1.20    0.76
   8  10   3    0.78    0.51
   8  10   3    0.51    0.57
   8  10   3    0.87    0.68
   8  10   4   44.16    1.26
   8  10   4   39.64    1.42
   8  10   4   40.87    1.17
   8  10   4   36.20    1.22
   8  10   5   55.68    1.42
   8  10   5   55.50    1.59
   8  10   5   54.49    1.35
   8  10   6   10.58    0.71
   8  10   6   10.52    0.66
   8  10   6    9.48    0.78
   8  10   6   12.73    1.02
   8  10   6   10.81    0.87
   8  10   7   39.60    1.08
   8  10   7   38.21    1.24
   8  10   7   40.17    1.31
   8  10   8    0.02    0.58
   8  10   8    0.71    0.89
   8  10   8    0.45    0.57
   8  10   8    0.34    0.44
   8  10   9   29.01    1.19
   8  10   9   32.38    0.98
   8  10  10    0.52    0.47
   8  10  10    0.91    0.60
   8  10  10    0.98    0.44
   8  10  11    5.84    0.37
   8  10  11    5.48    0.48
   8  10  11    5.15    0.58
   8  10  11    6.91    0.46
   8  10  12    0.82    0.34
   8  10  12    1.03    0.28
   8  11  -1    2.91    0.49
   8  11   0    3.38    0.31
   8  11   0    4.79    0.41
   8  11   0    4.44    0.62
   8  11   1    6.15    0.41
   8  11   1    7.04    0.50
   8  11   1    5.83    0.71
   8  11   2    1.28    0.38
   8  11   2    1.39    0.43
   8  11   2    1.37    0.64
   8  11   3   38.26    1.24
   8  11   3   37.79    1.02
   8  11   3   35.20    0.93
   8  11   4   34.13    0.93
   8  11   4   36.25    1.00
   8  11   4   34.64    1.20
   8  11   4   32.06    1.07
   8  11   5    2.59    0.65
   8  11   5    3.24    0.45
   8  11   5    3.19    0.63
   8  11   5    3.82    0.80
   8  11   6   45.41    1.27
   8  11   6   44.75    1.06
   8  11   6   43.08    1.20
   8  11   7   17.10    0.80
   8  11   7   18.19    0.66
   8  11   7   18.33    0.83
   8  11   8   18.14    0.75
   8  11   8   19.07    0.77
   8  11   9    0.44    0.45
   8  11   9    0.90    0.41
   8  11   9    0.70    0.56
   8  11  10    9.61    0.47
   8  11  10    8.45    0.60
   8  11  11    0.93    0.34
   8  11  11    0.92    0.28
   8  11  11    1.25    0.25
   8  12   0    6.86    0.44
   8  12   1    0.17    0.39
   8  12   2    5.68    0.56
   8  12   3    7.61    0.56
   8  12   3    7.95    0.62
   8  12   4    6.14    0.56
   8  12   4    5.84    0.57
   8  12   4    4.40    0.31
   8  12   5   10.62    0.64
   8  12   5   10.92    0.65
   8  12   6    8.37    0.59
   8  12   6    7.87    0.55
   8  12   7    6.97    0.53
   8  12   7    6.19    0.48
   8  12   8    5.05    0.40
   8  12   9    4.41    0.40
   8  12   9    7.38    0.36
   8  13   4   15.36    0.49
   8  13   5    2.06    0.34
   8  13   5    1.69    0.28
   9  -5   2   72.27    1.30
   9  -5   3   17.78    0.63
   9  -5   4   23.55    0.68
   9  -4  -1    3.47    0.34
   9  -4   0   25.58    0.78
   9  -4   1   18.20    0.67
   9  -4   1   20.64    0.81
   9  -4   2    2.56    0.73
   9  -4   2    3.12    0.49
   9  -4   3  148.50    2.75
   9  -4   4   25.40    0.97
   9  -4   5   11.32    0.58
   9  -3  -2    2.25    0.30
   9  -3  -1    5.09    0.52
   9  -3   0   19.65    0.99
   9  -3   1   23.49    0.97
   9  -3   1   24.61    0.99
   9  -3   2   17.14    0.76
   9  -3   2   19.99    0.82
   9  -3   3   12.00    0.87
   9  -3   4   13.52    0.57
   9  -3   4   20.67    0.96
   9  -3   5    4.54    0.55
   9  -2  -2   12.82    0.55
   9  -2  -1    7.08    0.65
   9  -2   0   21.20    1.18
   9  -2   1   11.56    0.52
   9  -2   1   16.31    0.95
   9  -2   2   12.00    0.87
   9  -2   2   12.58    0.71
   9  -2   2   10.56    0.73
   9  -2   3   32.81    1.08
   9  -2   3   27.45    1.05
   9  -2   4   31.70    1.07
   9  -2   4   20.62    0.76
   9  -2   5    7.34    0.63
   9  -2   5    5.50    0.48
   9  -2   6    7.69    0.53
   9  -1  -2    0.49    0.44
   9  -1  -1   29.68    0.97
   9  -1  -1   26.52    0.95
   9  -1   0   10.92    0.76
   9  -1   0    9.22    0.53
   9  -1   1   23.93    1.04
   9  -1   1   18.72    0.73
   9  -1   2   13.34    0.80
   9  -1   2    9.82    0.59
   9  -1   3    4.50    0.49
   9  -1   4    5.90    0.66
   9  -1   4    3.54    0.48
   9  -1   5    9.78    0.61
   9  -1   6   12.86    0.66
   9  -1   7   10.21    0.64
   9   0  -3    2.09    0.42
   9   0  -3    2.12    0.39
   9   0  -2   16.50    0.84
   9   0  -2   17.97    0.84
   9   0  -1    3.87    0.67
   9   0  -1    3.94    0.53
   9   0  -1    3.26    0.70
   9   0  -1    3.34    0.42
   9   0   0   38.63    1.18
   9   0   0   39.61    1.30
   9   0   0   38.49    1.09
   9   0   1    9.23    0.68
   9   0   1    8.24    0.82
   9   0   1    8.71    0.61
   9   0   2   17.32    0.88
   9   0   2   14.25    0.75
   9   0   3   24.19    0.91
   9   0   4   12.68    0.71
   9   0   5   16.12    0.77
   9   0   6    2.86    0.49
   9   0   7   30.32    0.99
   9   1  -3   17.49    0.76
   9   1  -3   17.49    0.72
   9   1  -2    3.03    0.82
   9   1  -2    3.71    0.90
   9   1  -1   30.51    1.30
   9   1  -1   32.88    1.34
   9   1   0   15.19    1.04
   9   1   0   16.82    0.96
   9   1   0   14.89    0.78
   9   1   1   22.37    1.10
   9   1   1   23.23    0.99
   9   1   1   23.32    0.94
   9   1   2   13.90    0.80
   9   1   2   12.60    0.76
   9   1   3   26.97    1.00
   9   1   4   15.66    0.80
   9   1   5   16.39    0.79
   9   1   6   43.03    1.22
   9   1   7   18.01    0.79
   9   1   8   21.70    0.84
   9   2  -3   -0.19    0.49
   9   2  -3    0.28    0.43
   9   2  -2   24.19    1.06
   9   2  -2   18.78    0.80
   9   2  -1    5.84    1.05
   9   2  -1    7.32    0.90
   9   2  -1    4.50    0.60
   9   2   0   43.67    1.52
   9   2   0   46.70    1.41
   9   2   0   45.07    1.35
   9   2   1   22.10    1.10
   9   2   1   24.25    1.04
   9   2   1   21.27    0.98
   9   2   2    4.00    0.76
   9   2   2    4.76    0.67
   9   2   2    3.83    0.62
   9   2   3   13.44    0.81
   9   2   4   63.63    1.58
   9   2   5    1.09    0.50
   9   2   6   11.91    0.71
   9   2   7   29.36    0.99
   9   2   8    9.46    0.65
   9   2   8    9.82    0.63
   9   2   9   20.08    0.78
   9   3  -3    3.23    0.45
   9   3  -3    3.47    0.42
   9   3  -2    4.12    0.73
   9   3  -2    3.54    0.59
   9   3  -2    3.74    0.56
   9   3  -1   34.22    1.35
   9   3  -1   36.78    1.22
   9   3  -1   34.95    1.33
   9   3   0    3.09    0.77
   9   3   0    4.41    0.72
   9   3   0    3.44    0.67
   9   3   1   15.65    0.96
   9   3   1   18.31    0.93
   9   3   1   17.42    0.94
   9   3   2    1.00    0.57
   9   3   3   18.73    0.91
   9   3   4    2.04    0.55
   9   3   5   42.43    1.22
   9   3   6   11.76    0.69
   9   3   7   12.84    0.67
   9   3   8   14.42    0.75
   9   3   8   13.37    0.68
   9   3   9   38.49    1.05
   9   3  10   31.02    0.90
   9   3  11    2.82    0.40
   9   4  -2    6.05    0.55
   9   4  -2    7.11    0.54
   9   4  -1    2.20    0.60
   9   4  -1    1.66    0.58
   9   4  -1    1.61    0.86
   9   4  -1    3.80    0.90
   9   4   0   26.93    1.04
   9   4   0   29.90    1.05
   9   4   0   30.29    1.21
   9   4   1    0.51    0.61
   9   4   1    0.43    0.61
   9   4   1    0.63    0.62
   9   4   1    0.03    0.60
   9   4   1    0.33    0.56
   9   4   2   15.61    0.88
   9   4   2   15.56    0.86
   9   4   3    1.84    0.59
   9   4   3    2.10    0.58
   9   4   3    1.93    0.55
   9   4   4   15.44    0.84
   9   4   4   15.38    0.80
   9   4   5    1.17    0.53
   9   4   5    0.96    0.49
   9   4   5    1.32    0.47
   9   4   6   14.80    0.72
   9   4   6   18.31    0.77
   9   4   7   17.21    0.72
   9   4   7   19.67    0.76
   9   4   8   28.99    0.98
   9   4   9   16.26    0.77
   9   4  10   36.93    0.99
   9   4  11    0.98    0.39
   9   5  -2    0.82    0.45
   9   5  -1   23.90    1.21
   9   5  -1   18.80    1.01
   9   5   0    4.51    0.85
   9   5   0    3.91    0.70
   9   5   0    6.15    0.66
   9   5   1   13.49    0.92
   9   5   1   13.34    0.84
   9   5   1   15.28    0.83
   9   5   2    0.73    0.62
   9   5   2    0.31    0.57
   9   5   2    0.57    0.49
   9   5   3   35.08    1.20
   9   5   3   35.84    1.16
   9   5   4    4.93    0.65
   9   5   4    5.10    0.63
   9   5   4    5.86    0.55
   9   5   5   30.20    1.01
   9   5   5   30.14    1.05
   9   5   6    2.86    0.52
   9   5   7   14.97    0.71
   9   5   8    7.20    0.53
   9   5   9   21.92    0.87
   9   5  10   12.58    0.65
   9   5  11    3.50    0.39
   9   5  11    3.60    0.32
   9   6  -2    0.58    0.33
   9   6  -2    0.61    0.32
   9   6  -1    0.69    0.55
   9   6  -1    1.05    0.49
   9   6   0    4.83    0.73
   9   6   0    4.84    0.62
   9   6   1   11.80    0.84
   9   6   1   11.41    0.77
   9   6   2   25.70    1.04
   9   6   2   25.26    0.98
   9   6   3    0.74    0.58
   9   6   3    0.55    0.56
   9   6   4   31.91    1.10
   9   6   4   32.80    1.06
   9   6   5    2.70    0.59
   9   6   5    2.99    0.56
   9   6   6   12.82    0.68
   9   6   7    4.15    0.51
   9   6   8   21.03    0.74
   9   6   8   19.02    0.73
   9   6   9    9.22    0.71
   9   6   9    9.06    0.52
   9   6  10   11.78    0.63
   9   6  11    0.87    0.34
   9   6  11    1.83    0.28
   9   7  -1    8.00    0.52
   9   7  -1    6.66    0.46
   9   7   0    2.54    0.54
   9   7   0    2.66    0.49
   9   7   1   20.05    0.88
   9   7   1   21.47    0.82
   9   7   2    2.47    0.59
   9   7   2    2.73    0.54
   9   7   3   28.77    1.02
   9   7   3   27.21    0.94
   9   7   4    0.79    0.55
   9   7   4    0.86    0.51
   9   7   5   31.86    1.01
   9   7   5   31.53    0.96
   9   7   6    6.27    0.56
   9   7   6    4.95    0.56
   9   7   7    7.21    0.54
   9   7   7    6.38    0.54
   9   7   8    3.84    0.45
   9   7   8    3.55    0.47
   9   7   9   24.14    0.73
   9   7  10    8.16    0.53
   9   7  10    9.99    0.46
   9   7  11   16.42    0.44
   9   8   0   61.06    1.18
   9   8   0   53.19    1.10
   9   8   1    4.56    0.50
   9   8   1    4.33    0.45
   9   8   2   20.68    0.80
   9   8   2   20.34    0.73
   9   8   3    7.84    0.61
   9   8   3    7.31    0.55
   9   8   4   15.03    0.72
   9   8   4   15.58    0.68
   9   8   5    3.97    0.54
   9   8   5    4.67    0.52
   9   8   5    4.40    0.50
   9   8   6   17.00    0.73
   9   8   6   19.92    0.71
   9   8   7    2.78    0.45
   9   8   7    3.17    0.44
   9   8   8    7.67    0.49
   9   8   9   -0.04    0.32
   9   8  10    5.45    0.34
   9   9   1   11.45    0.45
   9   9   1    9.39    0.39
   9   9   2    8.54    0.47
   9   9   2    7.98    0.42
   9   9   3    7.73    0.49
   9   9   3    7.55    0.44
   9   9   4    1.18    0.43
   9   9   4    1.52    0.35
   9   9   5   24.99    0.82
   9   9   5   30.88    0.77
   9   9   6    1.62    0.41
   9   9   6    1.98    0.37
   9   9   7   24.33    0.72
   9   9   8    0.28    0.31
   9   9   9   13.40    0.45
   9  10   4   14.61    0.52
   9  10   5    0.44    0.30
   9  10   5    0.36    0.22
   9  10   6   39.84    0.84
   9  10   7    3.53    0.30
   0   0   0    0.00    0.00


TITL tf-eb1 in P-1
REM P-1 (#2 in standard setting)
CELL 1.54184   7.782640  15.033616  15.041183  81.3406  76.2888  82.4472
ZERR    1.00   0.000168   0.000370   0.000346   0.0020   0.0019   0.0019
LATT  1
SFAC C H B N O F Ag
UNIT 66.00 66.00 2.00 14.00 4.00 8.00 2.00
REM  CrysAlisPro recorded range (K): Min=99.9; max=100.1; aver:100.0
TEMP -173
SIZE 0.04 0.05 0.38
TREF
HKLF 4
END
_computing_structure_solution     'SHELXT 2018/2 (Sheldrick, 2018)'
;
_shelx_hkl_checksum                27358
_olex2_submission_special_instructions  'No special instructions were received'
_oxdiff_exptl_absorpt_empirical_details
;
Empirical correction (ABSPACK) includes:
- Absorption correction using spherical harmonics
- Frame scaling
;
_oxdiff_exptl_absorpt_empirical_full_max  1.395
_oxdiff_exptl_absorpt_empirical_full_min  0.699
